/*--------------------------------*- C++ -*----------------------------------*\
  =========                 |
  \\      /  F ield         | OpenFOAM: The Open Source CFD Toolbox
   \\    /   O peration     | Website:  https://openfoam.org
    \\  /    A nd           | Version:  7
     \\/     M anipulation  |
\*---------------------------------------------------------------------------*/
FoamFile
{
    version     2.0;
    format      ascii;
    class       dictionary;
    location    "system";
    object      controlDict;
}
// * * * * * * * * * * * * * * * * * * * * * * * * * * * * * * * * * * * * * //

application     groundwater2DFoam;

startFrom       startTime;

startTime       0;

stopAt          endTime;

endTime         4.28544e+8;

deltaT          0;

writeControl    adjustableRunTime;

writeInterval   4.28544e+8;

purgeWrite      0;

writeFormat     ascii;

writePrecision  10;

writeCompression off;

timeFormat      general;

timePrecision   10;

adjustTimeStep  yes;

runTimeModifiable yes;

truncationError 0.01;

maxDeltaT	    2.6784e+5;

outputEventFile "output_dates.evt";

CSVoutput       true;

eventTimeTracking false;

// ************************************************************************* //
