/*--------------------------------*- C++ -*----------------------------------*\
  =========                 |
  \\      /  F ield         | OpenFOAM: The Open Source CFD Toolbox
   \\    /   O peration     | Website:  https://openfoam.org
    \\  /    A nd           | Version:  7
     \\/     M anipulation  |
\*---------------------------------------------------------------------------*/
FoamFile
{
    version     2.0;
    format      ascii;
    class       dictionary;
    location    "system";
    object      controlDict;
}
// * * * * * * * * * * * * * * * * * * * * * * * * * * * * * * * * * * * * * //

application     porousScalarTransport2DFoam;

startFrom       startTime;

startTime       0.0;

stopAt          endTime;

endTime         4.73364e+09;

deltaT          1;

writeControl    adjustableRunTime;

writeInterval   4.73364e+09;

purgeWrite      0;

writeFormat     ascii;

writePrecision  10;

writeCompression off;

timeFormat      general;

timePrecision   10;

adjustTimeStep yes;

runTimeModifiable true;

truncationError 0.01;

maxDeltaT	3.15576e+07;

CSVoutput       true;

eventTimeTracking false;

outputEventFile "output_dates.evt";

// ************************************************************************* //
