/*--------------------------------*- C++ -*----------------------------------*\
  =========                 |
  \\      /  F ield         | OpenFOAM: The Open Source CFD Toolbox
   \\    /   O peration     | Website:  https://openfoam.org
    \\  /    A nd           | Version:  9
     \\/     M anipulation  |
\*---------------------------------------------------------------------------*/
FoamFile
{
    format      ascii;
    class       volScalarField;
    location    "constant";
    object      K;
}
// * * * * * * * * * * * * * * * * * * * * * * * * * * * * * * * * * * * * * //

dimensions      [0 2 0 0 0 0 0];

internalField   nonuniform List<scalar> 
40483
(
2.85899e-13
2.74057e-13
2.59428e-13
2.72313e-13
2.44775e-13
2.83559e-13
2.62937e-13
2.43181e-13
2.79679e-13
2.69443e-13
2.52302e-13
2.31211e-13
2.57899e-13
2.69123e-13
2.51917e-13
2.33928e-13
2.54429e-13
2.6142e-13
2.45535e-13
2.28019e-13
2.57476e-13
2.66372e-13
2.49607e-13
2.41415e-13
2.65223e-13
2.54259e-13
2.63851e-13
2.5861e-13
2.50316e-13
2.65786e-13
2.59458e-13
2.53697e-13
2.65877e-13
2.43673e-13
2.68921e-13
2.73038e-13
2.62633e-13
2.54851e-13
2.59295e-13
2.69265e-13
2.68341e-13
2.84891e-13
2.72235e-13
2.53504e-13
2.63998e-13
2.76025e-13
2.58051e-13
2.90208e-13
2.90154e-13
2.81613e-13
2.49854e-13
2.55674e-13
2.61347e-13
2.74986e-13
2.65515e-13
2.98428e-13
3.14976e-13
3.11056e-13
2.83489e-13
2.4525e-13
2.53439e-13
2.69935e-13
2.79039e-13
2.62755e-13
2.92964e-13
2.98946e-13
2.99409e-13
2.38669e-13
2.60524e-13
2.70992e-13
2.93737e-13
2.42411e-13
2.08498e-13
2.94442e-13
2.89996e-13
3.05473e-13
2.26471e-13
2.49684e-13
2.61394e-13
2.85346e-13
2.99157e-13
2.32782e-13
2.26786e-13
1.46646e-13
1.86045e-13
2.32344e-13
3.25314e-13
2.26026e-13
2.53513e-13
2.77944e-13
2.90942e-13
3.20282e-13
2.15379e-13
2.0692e-13
1.32202e-13
9.26151e-14
1.46582e-13
1.82292e-13
3.37647e-13
2.11613e-13
2.43873e-13
2.73385e-13
2.85752e-13
3.13645e-13
3.28988e-13
3.36695e-13
2.10263e-13
1.83708e-13
8.68889e-14
6.37729e-14
9.8374e-14
1.62334e-13
3.61867e-13
2.168e-13
2.63539e-13
2.8384e-13
3.11248e-13
3.26053e-13
3.6075e-13
3.62785e-13
1.89557e-13
6.56908e-14
7.39586e-14
4.87756e-14
1.04745e-13
7.50876e-14
1.34327e-13
3.77008e-13
2.18039e-13
2.5157e-13
2.74797e-13
3.1067e-13
3.257e-13
3.56046e-13
3.77691e-13
3.75581e-13
1.88267e-13
5.35757e-14
6.97691e-14
6.24168e-14
4.36398e-14
9.22872e-14
6.67663e-14
1.45231e-13
4.06298e-13
2.32264e-13
2.68415e-13
3.25763e-13
3.38649e-13
3.64006e-13
3.79548e-13
4.13831e-13
4.18881e-13
1.72244e-13
4.50991e-14
6.18227e-14
6.32295e-14
4.35419e-14
7.4974e-14
1.10502e-13
6.14067e-14
1.36361e-13
4.27797e-13
2.00933e-13
2.41605e-13
3.17027e-13
3.64524e-13
3.79562e-13
4.24557e-13
4.41738e-13
4.48007e-13
4.39372e-14
6.26433e-14
6.30173e-14
7.68569e-14
1.1221e-13
6.28311e-14
1.63705e-13
4.6871e-13
2.01753e-13
2.62276e-13
3.30795e-13
3.59492e-13
4.41844e-13
4.28395e-13
4.74842e-13
4.85191e-13
5.0233e-13
5.30004e-14
6.3665e-14
7.21315e-14
7.05786e-14
9.45964e-14
1.44026e-13
6.38636e-14
1.70941e-13
4.98401e-13
2.54051e-13
3.01512e-13
3.17319e-13
3.87539e-13
4.32574e-13
4.67706e-13
4.89556e-13
4.80171e-13
5.50301e-13
5.21064e-13
5.55332e-13
6.29655e-14
6.99132e-14
8.47014e-14
8.05022e-14
1.06187e-13
1.57768e-13
7.12245e-14
2.32059e-13
5.502e-13
3.1465e-13
3.11723e-13
3.90358e-13
4.47245e-13
5.44638e-13
6.03007e-13
5.4558e-13
6.29944e-13
5.74033e-13
6.78978e-13
8.07685e-14
7.45491e-14
9.34422e-14
9.36987e-14
7.96493e-14
9.81519e-14
1.3653e-13
2.11869e-13
2.63654e-13
5.9003e-13
4.12757e-13
3.43392e-13
4.22697e-13
5.5878e-13
6.35752e-13
6.88161e-13
6.66368e-13
6.16641e-13
7.99919e-13
6.76222e-13
7.89313e-13
9.02819e-14
9.83142e-14
8.45369e-14
1.2059e-13
1.17314e-13
9.04269e-14
1.18289e-13
1.57358e-13
2.35645e-13
3.83403e-13
7.15793e-13
3.71222e-13
5.11967e-13
4.80493e-13
5.73501e-13
6.93676e-13
9.44281e-13
8.46064e-13
8.54362e-13
9.09181e-13
7.59329e-13
8.41036e-13
1.11404e-13
1.17376e-13
1.29157e-13
1.4373e-13
1.26445e-13
1.42989e-13
1.07426e-13
1.43285e-13
1.21462e-13
1.54775e-13
2.00284e-13
3.1725e-13
5.2003e-13
4.19075e-13
7.79923e-13
5.4194e-13
5.46269e-13
6.51599e-13
8.78922e-13
1.06692e-12
1.05261e-12
9.93573e-13
9.66388e-13
1.01597e-12
1.04087e-12
9.55652e-13
1.44681e-13
1.64679e-13
1.98619e-13
1.59086e-13
1.85632e-13
1.6895e-13
1.55799e-13
1.90403e-13
2.19694e-13
3.42526e-13
7.93973e-13
5.6463e-13
8.78132e-13
7.00931e-13
8.03362e-13
1.01022e-12
1.33691e-12
1.30242e-12
1.41889e-12
9.87926e-13
1.29925e-12
1.09253e-12
1.13271e-12
1.18644e-12
1.10073e-12
9.70364e-13
1.47033e-13
1.74134e-13
2.1203e-13
2.51369e-13
1.97321e-13
2.06905e-13
2.34716e-13
1.97973e-13
1.79339e-13
2.78497e-13
4.58886e-13
9.1221e-13
7.50584e-13
7.71419e-13
5.72544e-13
8.71165e-13
1.18915e-12
1.4657e-12
1.46151e-12
1.37933e-12
1.74161e-12
1.46311e-12
1.29139e-12
1.24125e-12
1.33373e-12
1.31087e-12
1.23084e-12
1.09177e-12
1.64531e-13
2.31657e-13
2.99362e-13
3.66868e-13
2.56783e-13
2.64454e-13
2.84166e-13
2.46759e-13
2.35417e-13
3.00566e-13
4.97967e-13
1.33665e-12
1.00769e-12
9.47201e-13
7.82034e-13
1.12473e-12
1.8268e-12
1.75295e-12
1.62932e-12
2.15613e-12
1.57158e-12
1.7779e-12
1.35468e-12
1.36176e-12
1.5109e-12
1.51651e-12
1.20471e-12
1.38343e-12
1.57378e-13
2.08376e-13
2.55204e-13
3.08119e-13
4.40161e-13
4.82272e-13
4.50742e-13
3.24003e-13
2.78922e-13
3.19989e-13
3.82442e-13
4.01955e-13
6.77272e-13
1.52992e-12
1.63253e-12
1.21291e-12
1.28029e-12
8.51287e-13
2.14575e-12
2.00142e-12
2.09592e-12
1.69253e-12
1.90151e-12
2.66369e-12
2.13759e-12
2.22062e-12
1.70614e-12
1.56348e-12
1.51015e-12
1.77049e-12
1.34363e-12
1.4501e-12
3.43099e-13
4.27061e-13
6.3736e-13
7.75779e-13
6.39557e-13
4.16326e-13
3.71402e-13
4.16482e-13
4.63208e-13
7.53516e-13
2.11976e-12
2.21694e-12
1.5426e-12
1.49418e-12
1.1418e-12
2.6889e-12
2.45049e-12
2.60189e-12
1.99621e-12
2.26191e-12
3.29966e-12
2.70009e-12
2.61519e-12
2.29905e-12
1.80185e-12
1.79737e-12
1.68761e-12
1.98537e-12
1.61145e-12
4.30507e-13
6.01957e-13
1.00251e-12
8.40802e-13
1.11133e-12
7.678e-13
5.08601e-13
4.39921e-13
4.40225e-13
5.1549e-13
6.36732e-13
1.03836e-12
2.5149e-12
2.3479e-12
1.67421e-12
1.97333e-12
1.41338e-12
1.25227e-12
3.68461e-12
2.80369e-12
2.60291e-12
3.18816e-12
2.29111e-12
2.13401e-12
4.70222e-12
3.27141e-12
3.33006e-12
2.85318e-12
2.20998e-12
2.07323e-12
1.89511e-12
2.27794e-12
1.71649e-12
5.6512e-13
8.24516e-13
1.34143e-12
1.12193e-12
1.68313e-12
7.92148e-13
1.03981e-12
6.5369e-13
5.79048e-13
5.86372e-13
6.75235e-13
7.10698e-13
1.16345e-12
3.37345e-12
3.0525e-12
2.04319e-12
2.14846e-12
1.8028e-12
1.62045e-12
4.54205e-12
3.92534e-12
3.11136e-12
4.46486e-12
2.66693e-12
2.54153e-12
4.70422e-12
5.7067e-12
4.56759e-12
3.40397e-12
2.97248e-12
2.31247e-12
2.43726e-12
2.06454e-12
2.47031e-12
2.51548e-12
1.95691e-12
7.70336e-13
1.17924e-12
1.9743e-12
1.45064e-12
2.22605e-12
1.77476e-12
1.07841e-12
1.20496e-12
7.03884e-13
7.77889e-13
9.44206e-13
1.55428e-12
2.28885e-12
3.88659e-12
3.22427e-12
3.6937e-12
2.69844e-12
1.88843e-12
1.85126e-12
5.42269e-12
4.6535e-12
4.0969e-12
3.77345e-12
5.36895e-12
3.10039e-12
2.75923e-12
5.75535e-12
5.991e-12
6.729e-12
5.52746e-12
4.99459e-12
3.69189e-12
3.14453e-12
2.34797e-12
2.81463e-12
2.90328e-12
2.10302e-12
1.03274e-12
1.51137e-12
2.35533e-12
2.26127e-12
1.74225e-12
2.96258e-12
2.2496e-12
1.19451e-12
1.56778e-12
9.43816e-13
1.01113e-12
1.08575e-12
1.72481e-12
1.85776e-12
2.71233e-12
5.01744e-12
4.11912e-12
4.63643e-12
2.85875e-12
2.38701e-12
2.36709e-12
6.59269e-12
5.72472e-12
4.99356e-12
4.54828e-12
6.35135e-12
4.08003e-12
3.66844e-12
5.93832e-12
6.77324e-12
7.35843e-12
7.66214e-12
6.38815e-12
5.22675e-12
3.72988e-12
2.52904e-12
3.04624e-12
3.79459e-12
2.38951e-12
1.42284e-12
1.97922e-12
3.05407e-12
2.86325e-12
2.14974e-12
3.37773e-12
3.14361e-12
2.74027e-12
1.5648e-12
1.76961e-12
1.13637e-12
1.4812e-12
2.26456e-12
2.37748e-12
3.7596e-12
5.4602e-12
5.81441e-12
4.89541e-12
4.43265e-12
3.68012e-12
2.70892e-12
6.8031e-12
7.57515e-12
5.8917e-12
5.18494e-12
4.73762e-12
7.36612e-12
4.16433e-12
4.02051e-12
7.29514e-12
8.10996e-12
7.99421e-12
7.55113e-12
8.81116e-12
6.60938e-12
4.2679e-12
2.87769e-12
3.94951e-12
4.21574e-12
2.55963e-12
1.66253e-12
2.17732e-12
3.45583e-12
2.65679e-12
3.38453e-12
2.54849e-12
3.98874e-12
3.75022e-12
2.97933e-12
1.75067e-12
2.17114e-12
1.50307e-12
1.70516e-12
2.61513e-12
2.56201e-12
6.77313e-12
5.06011e-12
6.18491e-12
5.67527e-12
4.01314e-12
3.43123e-12
8.45221e-12
9.30944e-12
7.18086e-12
6.20869e-12
5.49145e-12
8.39874e-12
5.06838e-12
4.94028e-12
8.44913e-12
7.74004e-12
9.22186e-12
9.16904e-12
8.54759e-12
7.28518e-12
5.30692e-12
3.48643e-12
4.23995e-12
4.91e-12
2.8972e-12
2.1222e-12
4.06935e-12
3.13824e-12
3.65735e-12
2.63782e-12
4.31921e-12
4.19605e-12
3.88834e-12
3.52001e-12
2.26837e-12
2.39894e-12
2.24433e-12
3.36297e-12
3.33558e-12
7.97239e-12
7.26373e-12
5.89763e-12
6.66574e-12
6.11809e-12
5.20499e-12
3.86672e-12
8.68316e-12
1.00855e-11
9.8145e-12
7.29051e-12
6.3125e-12
5.76494e-12
5.43057e-12
9.93754e-12
9.45924e-12
1.09151e-11
1.02508e-11
1.00275e-11
9.24605e-12
3.96131e-12
4.84182e-12
5.25058e-12
3.49887e-12
2.43659e-12
4.39304e-12
3.66443e-12
3.27004e-12
4.37081e-12
3.05827e-12
4.70413e-12
4.52728e-12
4.38524e-12
3.63608e-12
2.56261e-12
3.03696e-12
3.79574e-12
3.86865e-12
9.98122e-12
9.05197e-12
7.32987e-12
8.22069e-12
7.78774e-12
5.55231e-12
4.81358e-12
1.06088e-11
1.22152e-11
1.1028e-11
8.59037e-12
7.36289e-12
6.93786e-12
6.40199e-12
1.12946e-11
1.04814e-11
1.02485e-11
1.21651e-11
1.17905e-11
1.07563e-11
1.03881e-11
3.44748e-12
4.20136e-12
4.98247e-12
3.22919e-12
2.92184e-12
4.65972e-12
4.10752e-12
3.77292e-12
4.42959e-12
3.3273e-12
4.82518e-12
4.82245e-12
4.79846e-12
4.65253e-12
4.01768e-12
3.11907e-12
3.50313e-12
4.83183e-12
4.52615e-12
7.84702e-12
1.05771e-11
9.51745e-12
1.02209e-11
8.92213e-12
8.03215e-12
6.73761e-12
5.34911e-12
1.26122e-11
1.03287e-11
1.46442e-11
1.30758e-11
1.35698e-11
8.53071e-12
7.98037e-12
5.49414e-12
7.60353e-12
1.27069e-11
1.22177e-11
1.23161e-11
1.40027e-11
1.30157e-11
1.25146e-11
1.2569e-11
3.89599e-12
4.75835e-12
5.19027e-12
3.40866e-12
3.11939e-12
4.79926e-12
4.83452e-12
4.09598e-12
4.52076e-12
4.03405e-12
4.62707e-12
3.9619e-12
4.90717e-12
4.82996e-12
4.98586e-12
4.44593e-12
5.00449e-12
4.56936e-12
5.47552e-12
5.23094e-12
1.21908e-11
1.14519e-11
1.15233e-11
2.13667e-11
1.10464e-11
9.67388e-12
6.54943e-12
1.52389e-11
1.18957e-11
1.57346e-11
1.68333e-11
1.54941e-11
1.42384e-11
1.03471e-11
1.02652e-11
6.42109e-12
7.21392e-12
1.43398e-11
1.32298e-11
1.34935e-11
1.50781e-11
1.48904e-11
1.45643e-11
2.28543e-11
4.08647e-12
4.95488e-12
5.83198e-12
3.81641e-12
3.64888e-12
4.94885e-12
4.44937e-12
4.84341e-12
4.05721e-12
4.43979e-12
4.98995e-12
4.67399e-12
4.76503e-12
5.36866e-12
4.83407e-12
5.04012e-12
4.95196e-12
5.09975e-12
5.31733e-12
6.16461e-12
6.4582e-12
2.09964e-11
2.22695e-11
1.19887e-11
1.22975e-11
1.15811e-11
9.15336e-12
7.41201e-12
1.5756e-11
1.70243e-11
1.40041e-11
1.97147e-11
1.99084e-11
1.57778e-11
1.01157e-11
6.53254e-12
8.60085e-12
1.59139e-11
1.53431e-11
2.46974e-11
1.66242e-11
1.66349e-11
2.55309e-11
4.58823e-12
5.569e-12
6.01061e-12
3.99168e-12
5.51773e-12
4.78838e-12
5.13911e-12
4.44349e-12
4.74506e-12
5.20011e-12
5.72586e-12
5.25124e-12
4.57884e-12
5.4074e-12
4.79162e-12
5.09666e-12
5.32941e-12
6.2357e-12
6.98268e-12
6.90666e-12
2.40227e-11
2.55269e-11
2.21819e-11
1.3472e-11
1.35642e-11
9.21479e-12
1.85735e-11
2.00598e-11
1.63605e-11
2.21431e-11
2.26263e-11
2.26253e-11
1.79835e-11
9.87085e-12
1.47798e-11
7.21445e-12
9.14211e-12
2.24685e-11
2.1846e-11
2.6506e-11
1.8006e-11
1.71227e-11
2.23258e-11
2.7728e-11
4.76532e-12
5.75349e-12
6.75697e-12
4.43841e-12
5.04108e-12
5.42664e-12
4.67835e-12
4.80663e-12
5.00607e-12
6.24196e-12
5.84744e-12
5.88413e-12
4.64299e-12
4.28747e-12
5.21316e-12
5.7157e-12
4.88148e-12
5.4356e-12
5.72803e-12
6.59545e-12
8.46242e-12
7.83419e-12
2.47899e-11
2.65323e-11
2.79273e-11
2.27424e-11
1.42107e-11
1.64466e-11
1.12093e-11
2.28765e-11
2.38241e-11
1.71202e-11
2.73786e-11
2.10797e-11
2.71389e-11
2.74214e-11
1.3734e-11
1.57377e-11
8.27736e-12
1.08234e-11
2.8033e-11
2.79834e-11
2.96768e-11
1.92708e-11
2.20053e-11
2.67235e-11
3.09432e-11
5.31471e-12
6.44282e-12
7.01798e-12
4.5957e-12
5.32722e-12
5.6003e-12
5.70937e-12
4.876e-12
5.14994e-12
5.31282e-12
6.29091e-12
6.10237e-12
6.5583e-12
4.61236e-12
3.74743e-12
5.72848e-12
5.92358e-12
4.50098e-12
5.81e-12
5.88625e-12
6.80018e-12
7.56601e-12
9.44636e-12
8.98354e-12
2.8351e-11
3.05357e-11
3.22187e-11
2.59692e-11
2.36832e-11
1.90834e-11
1.20159e-11
2.72455e-11
2.89807e-11
2.11601e-11
3.30406e-11
2.62021e-11
3.06428e-11
1.42574e-11
1.80139e-11
8.66129e-12
1.12381e-11
3.03692e-11
3.05036e-11
3.19779e-11
2.35696e-11
2.2218e-11
2.31245e-11
2.93484e-11
3.39653e-11
5.40731e-12
6.53692e-12
7.8396e-12
5.01635e-12
5.59132e-12
5.9299e-12
5.9768e-12
5.2698e-12
5.49866e-12
5.94517e-12
6.16441e-12
6.86654e-12
3.91235e-12
5.48396e-12
3.06703e-12
3.93894e-12
6.04192e-12
6.10437e-12
4.77574e-12
5.50793e-12
6.39989e-12
7.75848e-12
1.1068e-11
1.01793e-11
3.16381e-11
2.89639e-11
3.39482e-11
2.62797e-11
3.04625e-11
2.85028e-11
1.744e-11
2.53698e-11
3.52174e-11
3.5538e-11
2.23194e-11
4.09344e-11
3.19621e-11
2.7242e-11
3.74742e-11
1.43367e-11
2.085e-11
1.59267e-11
9.96005e-12
1.32165e-11
3.40348e-11
3.41607e-11
3.64934e-11
2.38215e-11
2.28655e-11
2.65613e-11
3.16058e-11
3.82013e-11
5.99571e-12
7.27799e-12
8.00483e-12
5.088e-12
5.90602e-12
6.13063e-12
6.09592e-12
5.5772e-12
5.84948e-12
6.07547e-12
6.43548e-12
7.43149e-12
2.91418e-12
5.14494e-12
5.8981e-12
2.92014e-12
3.57172e-12
6.24192e-12
6.70597e-12
4.46945e-12
5.8436e-12
6.78861e-12
8.59813e-12
1.22249e-11
9.93999e-12
1.18939e-11
3.67082e-11
3.31854e-11
3.91449e-11
2.95168e-11
3.34635e-11
3.2386e-11
1.9808e-11
1.71807e-11
2.90016e-11
3.58068e-11
3.91485e-11
4.13967e-11
2.36581e-11
5.72547e-11
3.64869e-11
3.07287e-11
1.50436e-11
2.00976e-11
1.84389e-11
9.92788e-12
1.3464e-11
3.76538e-11
3.81805e-11
2.78816e-11
2.27839e-11
2.5085e-11
2.19981e-11
2.94555e-11
3.59329e-11
4.35803e-11
6.15197e-12
7.44225e-12
8.84461e-12
5.62021e-12
6.09792e-12
6.46856e-12
6.35785e-12
5.94822e-12
6.34332e-12
8.34817e-12
2.03447e-12
6.57656e-12
6.95909e-12
2.72232e-12
3.84889e-12
7.10399e-12
7.58632e-12
5.10718e-12
6.93724e-12
1.11827e-11
1.34057e-11
5.01071e-11
4.67961e-11
4.22405e-11
5.3102e-11
3.75464e-11
2.55957e-11
2.98088e-11
1.91218e-11
3.12765e-11
4.53442e-11
5.00636e-11
5.12907e-11
2.66502e-11
6.23574e-11
6.51817e-11
3.89683e-11
1.81119e-11
2.43081e-11
2.00935e-11
1.06097e-11
1.59544e-11
1.18948e-11
5.07985e-11
5.2437e-11
3.04229e-11
2.06202e-11
2.31341e-11
2.11727e-11
3.11676e-11
4.5481e-11
5.71555e-11
6.8562e-12
8.27859e-12
8.9463e-12
5.87991e-12
6.40753e-12
6.72494e-12
6.56897e-12
6.32874e-12
7.5029e-12
9.59272e-12
3.69777e-12
1.81234e-12
7.88618e-12
7.47011e-12
2.23917e-12
3.48883e-12
7.6575e-12
7.96177e-12
5.1125e-12
7.71143e-12
1.29425e-11
1.12072e-11
1.85145e-11
5.70787e-11
5.27674e-11
4.59882e-11
5.99035e-11
4.05628e-11
2.53342e-11
2.88812e-11
2.20895e-11
3.22196e-11
4.72253e-11
5.27214e-11
4.90307e-11
8.51844e-11
8.17889e-11
1.8966e-11
2.45253e-11
9.84452e-12
1.64149e-11
1.1482e-11
5.29505e-11
5.76151e-11
2.7363e-11
2.08799e-11
1.79005e-11
2.74338e-11
1.9407e-11
4.257e-11
6.45578e-11
7.13167e-12
8.56545e-12
5.5988e-12
6.69252e-12
6.63604e-12
6.66477e-12
1.09398e-11
8.21649e-12
6.65589e-12
9.2536e-12
9.90144e-12
5.08162e-12
2.47527e-12
8.15861e-12
7.74698e-12
3.16393e-12
4.09242e-12
8.63768e-12
8.62636e-12
7.88586e-12
6.57173e-12
1.60635e-11
1.45118e-11
2.09122e-11
5.99194e-11
5.21373e-11
4.4894e-11
6.73454e-11
2.82226e-11
4.22964e-11
2.48879e-11
3.8295e-11
5.74309e-11
7.48713e-11
5.35746e-11
7.82575e-11
1.01072e-10
9.78377e-11
2.22916e-11
2.7767e-11
1.01329e-11
1.99783e-11
1.44423e-11
1.14629e-11
6.05882e-11
6.55145e-11
2.94007e-11
1.82594e-11
1.61422e-11
2.8821e-11
2.29653e-11
4.7568e-11
8.00693e-12
9.52257e-12
6.06904e-12
7.09533e-12
6.91257e-12
1.1557e-11
1.04596e-11
6.90323e-12
9.64481e-12
1.2331e-11
7.91228e-12
4.3197e-12
7.92416e-12
3.94351e-12
4.10439e-12
8.78851e-12
9.38404e-12
8.91283e-12
8.39778e-12
7.19935e-12
1.80142e-11
1.59035e-11
2.04104e-11
2.45621e-11
7.17287e-11
5.66223e-11
4.84241e-11
7.82535e-11
2.80734e-11
3.16389e-11
4.67468e-11
4.05692e-11
7.24422e-11
5.28988e-11
4.0979e-11
8.91708e-11
1.22573e-10
1.15826e-10
2.28705e-11
2.60341e-11
3.52196e-11
2.01862e-11
1.50018e-11
1.2371e-11
1.00516e-11
6.92215e-11
5.86346e-11
7.07432e-11
2.0658e-11
1.56911e-11
1.47085e-11
3.53075e-11
1.93704e-11
4.62469e-11
8.43784e-12
5.87049e-12
6.76692e-12
7.96831e-12
9.48294e-12
1.21248e-11
1.16397e-11
1.09576e-11
7.2265e-12
1.06865e-11
1.58447e-11
1.27775e-11
7.79014e-12
4.52864e-12
7.92332e-12
8.00198e-12
5.85895e-12
5.99603e-12
9.55821e-12
1.01308e-11
9.72436e-12
8.46745e-12
1.09958e-11
1.84405e-11
2.31827e-11
2.8191e-11
7.31094e-11
8.28292e-11
6.41932e-11
5.3656e-11
9.03514e-11
3.15179e-11
4.3791e-11
4.96812e-11
9.28447e-11
6.05534e-11
4.16311e-11
1.19881e-10
6.56093e-11
1.35183e-10
1.14542e-10
2.74068e-11
2.97605e-11
3.60541e-11
2.32557e-11
1.72802e-11
1.2196e-11
1.13952e-11
9.52046e-12
8.28637e-11
6.71978e-11
8.42435e-11
1.52652e-11
1.24311e-11
1.1235e-11
3.53211e-11
1.9864e-11
5.89137e-11
6.26836e-12
7.1994e-12
8.42287e-12
1.29299e-11
1.27766e-11
1.24412e-11
1.01428e-11
1.13622e-11
2.06341e-11
1.97767e-11
8.55614e-12
6.78976e-12
1.03836e-11
7.39698e-12
6.8804e-12
1.01404e-11
9.90946e-12
1.10608e-11
1.03445e-11
9.86802e-12
9.41895e-12
1.304e-11
2.15382e-11
2.76487e-11
3.20283e-11
8.39149e-11
1.01302e-10
6.40723e-11
5.74297e-11
1.07905e-10
4.31067e-11
4.78e-11
5.49183e-11
8.49113e-11
5.41261e-11
2.75011e-11
1.21963e-10
6.36207e-11
1.49181e-10
1.26802e-10
3.02166e-11
4.21718e-11
2.14797e-11
2.78138e-11
1.59703e-11
1.22546e-11
1.17314e-11
1.0054e-11
8.3757e-11
1.61063e-11
9.41285e-12
1.08549e-11
4.85173e-11
2.67017e-11
1.43936e-11
6.26963e-11
6.0655e-12
6.89715e-12
7.98246e-12
9.41396e-12
1.34182e-11
1.33832e-11
1.29622e-11
1.42132e-11
1.25038e-11
2.50239e-11
2.38974e-11
2.36635e-11
1.03535e-11
8.94852e-12
1.2612e-11
9.72156e-12
1.03003e-11
1.09992e-11
1.06728e-11
1.16273e-11
1.1436e-11
1.02719e-11
1.05734e-11
1.01124e-11
2.02737e-11
3.13436e-11
3.68146e-11
7.86631e-11
9.89189e-11
1.10184e-10
6.91807e-11
1.25068e-10
4.66019e-11
4.94832e-11
5.76034e-11
9.36952e-11
6.31007e-11
2.72314e-11
9.0197e-11
1.41496e-10
3.95405e-11
1.51192e-10
1.45018e-10
1.12731e-10
3.82376e-11
1.83702e-11
2.54153e-11
3.08927e-11
1.38514e-11
1.08405e-11
9.82109e-12
9.80372e-11
1.15663e-11
5.87141e-12
8.34025e-12
5.44751e-11
2.63656e-11
1.43052e-11
8.2947e-11
5.74685e-12
6.5545e-12
8.3736e-12
9.74769e-12
1.39882e-11
1.42612e-11
1.40778e-11
1.48387e-11
1.33617e-11
3.34132e-11
2.96085e-11
3.40821e-11
1.21093e-11
1.04311e-11
1.29248e-11
1.2696e-11
1.22131e-11
1.11857e-11
1.15407e-11
1.09642e-11
1.23736e-11
1.23442e-11
1.10372e-11
1.13519e-11
1.11974e-11
3.01623e-11
3.78286e-11
4.74038e-11
4.00559e-11
8.53997e-11
9.98269e-11
1.30709e-10
6.43807e-11
1.21384e-10
1.40118e-10
5.38666e-11
8.43178e-11
5.58242e-11
1.60948e-11
8.17236e-11
1.27167e-10
3.11376e-11
1.49893e-10
1.44951e-10
1.1352e-10
4.34266e-11
2.01936e-11
2.9582e-11
4.20698e-11
1.61163e-11
1.07408e-11
9.7917e-12
9.55897e-12
6.95258e-12
4.73398e-12
5.40581e-12
1.01628e-11
8.05391e-11
4.49107e-11
1.8367e-11
3.24957e-11
5.55022e-12
6.275e-12
7.20554e-12
8.33622e-12
1.45875e-11
1.46559e-11
1.49568e-11
1.52118e-11
1.51344e-11
1.31512e-11
1.46892e-11
4.0368e-11
3.92372e-11
4.68329e-11
1.20091e-11
1.26995e-11
1.28604e-11
1.35306e-11
1.71729e-11
1.19716e-11
1.23001e-11
1.17343e-11
1.23001e-11
1.26808e-11
1.18443e-11
1.16201e-11
2.68248e-11
4.97783e-11
4.14825e-11
5.15089e-11
5.24833e-11
7.78979e-11
1.1288e-10
1.32883e-10
6.73552e-11
1.33745e-10
1.50271e-10
5.4589e-11
9.4745e-11
6.72734e-11
1.65727e-11
5.50169e-11
1.00497e-10
1.2772e-10
3.44805e-11
1.39277e-10
1.27327e-10
1.73089e-11
2.15888e-11
3.82209e-11
2.56127e-11
4.51321e-11
1.431e-11
1.08663e-11
9.03254e-12
8.64369e-12
4.74255e-12
2.6953e-12
3.96051e-12
9.56706e-12
9.66594e-11
4.76223e-11
1.92352e-11
2.75837e-11
5.79868e-12
6.55123e-12
7.499e-12
1.58347e-11
1.6113e-11
1.58195e-11
1.58737e-11
1.41167e-11
1.54995e-11
5.25464e-11
5.97604e-11
1.26639e-11
1.64397e-11
1.29594e-11
1.31719e-11
1.57237e-11
1.27969e-11
1.22285e-11
1.29386e-11
1.3468e-11
1.60035e-11
1.269e-11
1.2649e-11
3.91044e-11
7.65088e-11
5.44534e-11
5.34197e-11
5.88389e-11
7.59397e-11
1.00886e-10
1.42917e-10
6.33459e-11
1.48649e-10
1.22689e-10
1.51158e-10
5.83951e-11
8.69048e-11
5.72956e-11
9.74815e-12
5.19259e-11
7.64349e-11
1.0069e-10
1.89933e-11
1.23863e-10
1.18173e-10
1.60706e-11
1.95233e-11
3.60528e-11
2.65339e-11
1.2384e-11
8.8696e-12
1.05574e-11
8.36828e-12
8.75678e-12
8.1957e-12
5.14474e-12
2.7642e-12
1.78054e-12
2.15157e-12
6.1637e-12
1.43327e-11
8.18311e-11
3.34904e-11
5.96954e-11
5.59153e-12
6.27004e-12
7.12411e-12
1.66677e-11
1.76067e-11
1.61767e-11
1.61639e-11
1.65574e-11
1.51079e-11
1.39751e-11
1.66304e-11
7.89856e-11
1.33391e-11
2.29391e-11
1.4002e-11
1.42364e-11
1.87557e-11
1.74701e-11
1.34714e-11
1.30661e-11
1.58861e-11
1.36013e-11
1.51152e-11
1.38391e-11
3.61178e-11
6.90214e-11
1.02315e-10
6.22889e-11
5.70713e-11
6.06139e-11
8.19298e-11
6.68314e-11
1.01684e-10
1.3883e-10
1.48333e-10
1.33845e-10
1.50723e-10
5.84142e-11
9.52085e-11
6.07868e-11
1.00142e-11
3.17807e-11
6.56113e-11
9.33138e-11
7.42817e-11
1.85185e-11
1.04638e-10
1.9197e-11
1.57532e-11
2.19379e-11
3.87321e-11
3.07948e-11
2.5741e-11
1.38652e-11
9.42552e-12
1.22665e-11
7.90142e-12
8.06487e-12
2.5599e-12
1.58772e-12
1.12215e-12
1.46578e-12
1.93542e-12
6.06163e-12
1.48532e-11
9.38493e-11
3.14981e-11
5.32078e-11
5.78344e-12
6.48226e-12
7.34539e-12
1.80472e-11
1.87586e-11
1.7813e-11
1.6068e-11
1.67384e-11
1.68001e-11
1.74972e-11
1.60955e-11
1.48963e-11
1.70045e-11
7.59229e-11
1.47371e-11
2.2744e-11
1.51701e-11
1.64102e-11
2.17853e-11
2.09122e-11
1.44382e-11
1.38994e-11
1.78209e-11
1.61878e-11
1.51814e-11
2.0405e-11
5.34991e-11
8.31955e-11
1.26716e-10
6.44007e-11
7.47474e-11
6.37004e-11
8.4467e-11
1.12233e-10
1.44432e-10
1.26911e-10
1.19895e-10
6.08364e-11
7.94284e-11
4.65283e-11
4.95978e-12
2.84163e-11
4.01124e-11
6.92627e-11
4.91737e-11
9.2606e-12
8.47659e-11
1.74037e-11
1.55867e-11
1.89241e-11
3.2563e-11
2.62598e-11
1.38732e-11
7.73813e-12
9.05288e-12
1.29059e-11
9.09856e-12
7.66809e-12
2.43629e-12
1.35737e-12
5.81616e-13
6.49089e-13
3.61746e-12
9.94405e-13
9.92259e-12
2.15277e-11
7.46602e-11
4.01469e-11
5.81526e-11
5.57039e-12
6.202e-12
6.98527e-12
1.87568e-11
2.04633e-11
1.8911e-11
1.62127e-11
1.71714e-11
1.74108e-11
1.83573e-11
1.60149e-11
1.5085e-11
1.80557e-11
8.31189e-11
1.64695e-11
3.19111e-11
1.74842e-11
1.96461e-11
2.82459e-11
2.64048e-11
1.48669e-11
1.81722e-11
2.00576e-11
1.65024e-11
1.81685e-11
5.98791e-11
1.11538e-10
1.46477e-10
1.03935e-10
7.28594e-11
6.24434e-11
6.7081e-11
7.60177e-11
6.42393e-11
8.17598e-11
1.0071e-10
1.32892e-10
1.18819e-10
1.20719e-10
4.3041e-11
4.71906e-12
1.56635e-11
2.70697e-11
6.41652e-11
4.94348e-11
4.22103e-11
2.98517e-11
8.83414e-12
1.68012e-11
1.58946e-11
1.39776e-11
1.68991e-11
1.91441e-11
3.2004e-11
2.26469e-11
8.48676e-12
8.48956e-12
1.18322e-11
1.19012e-11
7.1446e-12
1.17928e-12
5.86745e-13
3.40263e-13
4.88573e-13
3.82386e-12
1.05541e-12
1.05143e-11
2.1694e-11
7.81667e-11
3.80816e-11
4.70556e-11
5.71158e-12
6.35614e-12
2.00737e-11
2.23185e-11
2.10301e-11
2.0388e-11
1.65213e-11
1.78612e-11
1.70261e-11
1.80739e-11
1.91005e-11
1.70328e-11
1.6466e-11
1.865e-11
1.85016e-11
4.66557e-11
1.89978e-11
1.9714e-11
2.56425e-11
3.05738e-11
1.61108e-11
2.10252e-11
2.23304e-11
1.80556e-11
1.68149e-11
2.58918e-11
1.88397e-11
9.08721e-11
1.41092e-10
1.45147e-10
1.06185e-10
7.3827e-11
6.37429e-11
6.51628e-11
6.85922e-11
6.30103e-11
7.25604e-11
8.91243e-11
1.04638e-10
1.20037e-10
9.93998e-11
4.83105e-11
3.4202e-11
2.15942e-12
1.53407e-11
3.42004e-11
2.5881e-11
1.69166e-11
4.39378e-12
1.53533e-11
1.28584e-11
1.50015e-11
1.70699e-11
2.23186e-11
6.90233e-12
8.02136e-12
1.1158e-11
1.13798e-11
1.03846e-11
6.79601e-12
1.10938e-12
5.42215e-13
1.62056e-13
2.12058e-13
6.93853e-12
2.22396e-12
5.856e-13
1.58546e-11
2.872e-11
5.82154e-11
4.10249e-11
5.49883e-12
6.07837e-12
2.01739e-11
2.40887e-11
2.23557e-11
2.26699e-11
2.02446e-11
1.66047e-11
1.82687e-11
1.72693e-11
1.89022e-11
1.82406e-11
1.70446e-11
2.11207e-11
5.8011e-11
2.11191e-11
2.32145e-11
2.97375e-11
4.38856e-11
2.31078e-11
2.25291e-11
2.50468e-11
1.91162e-11
1.84144e-11
2.97397e-11
2.0867e-11
9.7936e-11
1.42577e-10
1.4526e-10
1.28001e-10
9.35924e-11
8.12891e-11
6.73998e-11
6.19935e-11
6.51279e-11
6.31808e-11
7.23831e-11
6.59579e-11
8.09789e-11
9.23026e-11
1.0153e-10
3.69074e-11
3.00776e-11
2.14345e-12
8.90874e-12
2.51085e-11
3.24198e-11
1.82686e-11
9.22093e-12
4.57876e-12
1.44237e-11
1.31484e-11
1.15046e-11
1.39743e-11
1.84261e-11
1.46716e-11
2.5013e-11
7.66871e-12
7.62478e-12
1.01896e-11
1.05225e-11
1.07461e-11
5.0155e-13
2.93436e-13
1.21729e-13
1.09543e-13
2.46873e-13
8.13087e-12
2.12763e-12
9.10521e-13
1.72391e-11
2.95634e-11
5.77541e-11
4.33133e-11
6.67067e-12
7.30071e-12
2.09732e-11
2.63708e-11
2.4369e-11
2.33796e-11
2.10442e-11
1.6569e-11
1.70057e-11
1.90927e-11
1.77759e-11
1.9588e-11
1.96509e-11
1.86511e-11
2.25403e-11
5.5975e-11
8.08487e-11
2.31037e-11
2.69303e-11
2.91372e-11
3.78139e-11
5.03962e-11
2.63106e-11
2.6613e-11
2.74294e-11
2.06887e-11
1.92715e-11
3.27588e-11
2.23435e-11
2.17102e-11
1.21286e-10
1.29536e-10
1.22901e-10
9.71065e-11
7.98195e-11
6.6388e-11
6.1816e-11
6.0847e-11
6.55373e-11
6.05134e-11
8.13482e-11
8.94331e-11
3.11121e-11
1.11637e-12
6.55735e-12
1.98613e-11
2.49836e-11
1.25049e-11
6.61139e-12
2.34813e-12
1.20897e-11
1.08122e-11
1.23219e-11
1.63595e-11
1.34182e-11
2.54776e-11
7.22735e-12
9.98746e-12
9.595e-12
1.02854e-11
1.04657e-11
5.16831e-13
1.46497e-13
6.77636e-14
6.56035e-14
1.80825e-13
1.35637e-11
4.82865e-12
5.20591e-13
2.38682e-11
7.20093e-11
4.7163e-11
3.45575e-11
6.4114e-12
6.97037e-12
2.24015e-11
2.05685e-11
2.9354e-11
2.56988e-11
2.40885e-11
2.67619e-11
2.27653e-11
1.6898e-11
1.9691e-11
1.7691e-11
1.99093e-11
2.44991e-11
7.39332e-11
8.72025e-11
3.05525e-11
3.33167e-11
3.91511e-11
4.57608e-11
6.69845e-11
2.83027e-11
2.85283e-11
2.91703e-11
3.12082e-11
2.16962e-11
2.09623e-11
2.71396e-11
2.47664e-11
2.38685e-11
1.07284e-10
1.22198e-10
1.08719e-10
8.89385e-11
7.48431e-11
6.88293e-11
6.15792e-11
5.79004e-11
6.44309e-11
6.01102e-11
5.69076e-11
7.09796e-11
1.23801e-12
3.23384e-12
2.06934e-11
1.55804e-11
1.2716e-11
8.08861e-12
3.97533e-12
1.11465e-11
1.00899e-11
1.11855e-11
1.68076e-11
1.39212e-11
1.18382e-11
6.94038e-12
9.46894e-12
9.31891e-12
9.62189e-12
8.982e-12
9.58073e-12
9.88972e-12
3.27017e-13
1.1295e-13
5.55778e-14
5.68406e-14
8.86777e-14
1.84148e-11
6.55191e-12
7.64426e-13
2.68446e-11
6.61852e-11
3.98423e-11
4.71161e-11
3.55217e-11
6.40205e-12
2.26986e-11
2.1363e-11
3.26008e-11
2.93657e-11
2.67295e-11
2.62497e-11
2.3403e-11
1.69188e-11
2.10675e-11
1.88006e-11
1.71933e-11
1.78501e-11
2.15674e-11
2.7583e-11
7.78731e-11
3.45914e-11
3.10223e-11
3.51353e-11
3.60925e-11
4.45513e-11
5.31152e-11
7.32131e-11
3.22636e-11
3.25005e-11
3.44522e-11
3.4153e-11
2.33702e-11
2.1882e-11
4.24283e-11
2.74779e-11
2.5429e-11
2.46741e-11
1.07551e-10
1.26064e-10
1.15696e-10
1.20303e-10
8.79046e-11
7.82456e-11
6.55581e-11
5.85948e-11
5.63388e-11
5.79533e-11
5.53768e-11
5.376e-11
8.54442e-13
2.74709e-12
1.3648e-11
1.00522e-11
6.54334e-12
3.48411e-12
1.03323e-11
9.78146e-12
1.02215e-11
1.09807e-11
1.40503e-11
1.23719e-11
1.13243e-11
6.63472e-12
8.26153e-12
8.3572e-12
8.88354e-12
9.0616e-12
8.53808e-12
8.66146e-12
8.96654e-12
1.69432e-13
4.51985e-13
7.1738e-14
4.66695e-14
4.77624e-14
1.33091e-13
2.19313e-11
2.46449e-11
1.79697e-11
2.96492e-12
4.0973e-13
5.79143e-11
3.97245e-11
4.32843e-11
5.0264e-11
3.49115e-11
6.1637e-12
2.43604e-11
3.70052e-11
3.00246e-11
3.23717e-11
2.68705e-11
2.53013e-11
2.28791e-11
2.26986e-11
1.80246e-11
1.88041e-11
1.71261e-11
1.74175e-11
9.42585e-11
3.86251e-11
3.59775e-11
3.87997e-11
3.86501e-11
5.03096e-11
4.35061e-11
6.48109e-11
8.93198e-11
3.59821e-11
3.79381e-11
3.96856e-11
2.40297e-11
2.31516e-11
3.53228e-11
3.01281e-11
2.82317e-11
2.69376e-11
1.36032e-10
1.21361e-10
1.09681e-10
9.45267e-11
7.45731e-11
6.74019e-11
5.81964e-11
5.29711e-11
5.43125e-11
5.56534e-11
5.27756e-11
5.17576e-11
1.12164e-12
1.77919e-12
1.10062e-11
7.76281e-12
6.66532e-12
4.76468e-12
2.62555e-12
3.89834e-12
9.18826e-12
9.45797e-12
9.69751e-12
1.19778e-11
1.15644e-11
1.0087e-11
8.12121e-12
7.83324e-12
7.63935e-12
8.59094e-12
6.17169e-12
8.16989e-12
8.56253e-12
1.54696e-13
3.95534e-13
6.88677e-14
4.95062e-14
5.1797e-14
1.1166e-13
3.4417e-11
3.09368e-11
3.62962e-11
4.21228e-12
1.16516e-12
4.09936e-11
4.11772e-11
4.30029e-11
4.66518e-11
4.18496e-11
7.63588e-12
3.85411e-11
3.83485e-11
3.22154e-11
3.59289e-11
3.07855e-11
2.86835e-11
2.54053e-11
2.40224e-11
2.26209e-11
1.93977e-11
9.95017e-11
3.9633e-11
4.23432e-11
4.18441e-11
3.96598e-11
5.69414e-11
4.54136e-11
6.71099e-11
9.4673e-11
4.17198e-11
4.3866e-11
4.39385e-11
2.33834e-11
2.60023e-11
2.40908e-11
3.88568e-11
3.76477e-11
3.43969e-11
2.9052e-11
2.78136e-11
1.49898e-10
1.1885e-10
1.12976e-10
8.92973e-11
7.87474e-11
6.26746e-11
5.36839e-11
5.1235e-11
5.02989e-11
5.1064e-11
4.94393e-11
4.89344e-11
9.207e-13
2.01659e-12
1.0361e-11
6.61936e-12
5.05811e-12
3.02703e-12
8.75841e-12
9.17154e-12
8.81203e-12
9.29125e-12
9.95731e-12
7.77924e-12
7.52028e-12
7.64322e-12
6.10306e-12
6.28352e-12
5.90918e-12
8.17575e-12
7.7725e-12
8.51652e-12
9.74084e-14
2.38471e-13
5.99075e-13
6.8201e-14
5.30979e-14
2.92417e-13
5.30813e-11
6.60829e-11
3.49096e-11
1.28617e-11
1.49685e-12
4.09002e-11
4.47379e-11
4.12178e-11
4.39319e-11
4.65483e-11
5.44149e-11
7.35445e-12
4.21277e-11
4.29032e-11
2.93088e-11
3.62996e-11
3.06191e-11
2.85678e-11
2.6848e-11
2.04947e-11
2.46232e-11
4.4839e-11
4.70111e-11
4.72052e-11
4.22562e-11
5.54621e-11
4.94213e-11
7.73071e-11
1.10978e-10
8.95319e-11
4.67443e-11
4.73539e-11
4.70653e-11
5.06653e-11
2.31793e-11
2.64196e-11
2.54464e-11
4.53724e-11
4.42467e-11
3.64059e-11
3.26355e-11
3.15777e-11
1.51487e-10
1.44868e-10
1.27978e-10
9.57889e-11
1.26334e-10
7.42167e-11
6.19245e-11
5.23844e-11
4.75091e-11