/*--------------------------------*- C++ -*----------------------------------*\
  =========                 |
  \\      /  F ield         | OpenFOAM: The Open Source CFD Toolbox
   \\    /   O peration     | Website:  https://openfoam.org
    \\  /    A nd           | Version:  7
     \\/     M anipulation  |
\*---------------------------------------------------------------------------*/
FoamFile
{
    version     2.0;
    format      ascii;
    class       volScalarField;
    location    "constant";
    object      potentialDEM;
}
// * * * * * * * * * * * * * * * * * * * * * * * * * * * * * * * * * * * * * //

dimensions      [0 1 0 0 0 0 0];

internalField   nonuniform List<scalar> 
40483
(
47.966667
47.713333
47.246667
47.726667
46.646667
48.27
47.58
46.573333
48.466667
48.03
47.06
45.926667
49.506667
48.743333
47.733333
46.07
49.91
48.966667
47.39
45.68
51.386667
51.446667
48.113333
46.763333
52.53
52.7
52.85
50.7
47.12
54.126667
54.623333
56.756667
51.626667
45.97
49.396667
55.58
56.96
57.893333
58.67
54.913333
46.743333
49.97
57.753333
60.63
61.64
55.19
46.206667
48.466667
52.476667
59.606667
60.676667
62.903333
63.373333
62.746667
58.216667
47.573333
49
51.53
61.913333
62.77
64.14
65.506667
65.196667
57.686667
47.503333
53.713333
63.406667
63.646667
66.17
67.066667
66.776667
59.543333
46.193333
49.783333
52.95
65.82
63.373333
66.303333
67.456667
69.143333
69.163333
61.893333
58.57
46.346667
50.026667
55.95
66.92
65.846667
68.03
70.306667
71.096667
71.32
62.203333
60.313333
47.9
45.65
53.023333
55.78
69.15
65.873333
67.846667
70.856667
71.98
73.873333
74.076667
71.233333
63.71
60.936667
47.9
45.84
53.613333
59.023333
70.04
67.816667
71.283333
72.973333
76.193333
77.296667
77.72
73.416667
63.273333
46.536667
48.77
45.423333
57.163333
52.09
59.816667
72.573333
67.046667
72.146667
74.06
76.936667
79.033333
81.896667
77.146667
82.116667
64.666667
46.556667
50.243333
47.63
45.48
58.016667
53.72
62.82
74.216667
68.926667
75.41
80.23
81.416667
85.46
87.22
80.27
88.186667
64.703333
45.916667
50.866667
48.23
45.2
56.096667
61.133333
52.786667
63.283333
78.183333
67.466667
72.96
81.53
84.953333
87.233333
91.686667
85.573333
89.543333
45.636667
49.993333
47.49
57.396667
61.79
53.813333
65.72
81.286667
68.02
76.17
84.016667
85.29
91.003333
91.983333
95.65
88.836667
94.67
46.116667
51.06
49.193333
56.046667
59.973333
64.436667
52.96
66.216667
86.636667
71.456667
81.106667
77.496667
88.53
90.92
93.136667
93.683333
95.943333
98.033333
93.686667
97.646667
45.613333
51
49.843333
56.956667
60.833333
64.83
53.856667
70.11
89.963333
76.263333
82.433333
88.39
91.673333
97.233333
96.633333
98.093333
99.973333
95.72
99.003333
45.87
52.79
48.483333
52.686667
55.62
59.166667
63.043333
67.05
70.55
94.196667
81.683333
85.203333
88.873333
94.036667
98.476667
98.183333
96.233333
99.74
100.47
98.06
99.533333
46.716667
45.256667
53.826667
49.21
53.95
55.803333
59.853333
63.54
66.936667
72.29
95.603333
85.686667
80.253333
90.263333
92.943333
100.01
99.066667
96.793333
99.94
100.79
98.263333
98.98
46.556667
45.71
47.64
50.613333
56.42
52.743333
57.133333
61.483333
58.863333
62.643333
65.213333
68.17
75.226667
70.023333
97.33
83.543333
88.14
90.82
100.563333
98.683333
99.78
94.763333
97.94
99.996667
100.726667
98.616667
45.546667
47.4
49.896667
58.033333
53.663333
61.81
59.75
63.58
64.923333
67.14
74.283333
70.09
97.006667
80.36
88.743333
100.446667
98.243333
99.61
94.426667
91.033333
97.363333
100.463333
99.636667
100.87
98.936667
97.576667
45.093333
46.153333
48.253333
50.866667
57.456667
55.33
52.503333
63.043333
61.066667
65.616667
67.546667
71.573333
76.126667
70.443333
68.643333
82.88
100.816667
98.456667
97.486667
100.226667
92.646667
95.88
88.02
100.653333
100.023333
100.866667
98.363333
96.843333
45.093333
45.706667
47.2
50.336667
58.833333
55.006667
53.4
63.32
61.97
64.55
66.55
71.406667
75.1
69.146667
68.413333
80.973333
97.686667
96.136667
99.943333
92.63
89.97
95.136667
83.823333
100.573333
99.91
100.866667
97.31
98.473333
45
45.093333
45.1
45.9
47.393333
48.826667
51.916667
57.653333
61.006667
55.953333
53.343333
65.076667
66.51
70.3
73.09
77.426667
69.17
67.276667
96.063333
98.013333
95.346667
100.453333
99.033333
91.093333
93.666667
88.38
82.693333
100.756667
99.216667
100.603333
96.753333
97.506667
45.006667
45.293333
46.063333
48.853333
51.676667
58.39
61.523333
54.923333
64.383333
65.416667
70.63
73.4
77.373333
68.673333
66.863333
95.103333
97.003333
93.866667
100.276667
98.79
90.533333
89.52
93.186667
85.3
79.79
100.9
99.063333
100.553333
97.92
45.006667
45.263333
46.013333
50.123333
47.37
52.563333
57.353333
60.086667
63.023333
55.586667
64.763333
65.076667
72.046667
69.94
75.356667
69.113333
67.663333
65.756667
93.636667
95.716667
97.606667
93.116667
99.523333
100.743333
88.906667
91.59
87.653333
83.966667
79.18
101.11
99.706667
101.083333
97.573333
44.98
44.646667
44.88
50.653333
48.3
53.706667
51.926667
58.03
60.94
62.633333
54.91
63.516667
64.133333
72.71
70.406667
75.543333
68.77
67.766667
65.923333
92.763333
94.86
97.023333
91.76
99.533333
100.416667
87.6
87.873333
90.913333
85.18
80.75
76.95
101.486667
99.583333
101
101.59
98.593333
44.65
44.313333
44.923333
50.716667
48.063333
50.196667
53.86
52.896667
59.92
56.59
63.226667
64.27
74.25
72.156667
70.006667
71.276667
69.196667
67.133333
65.796667
91.466667
93.373333
95.563333
97.686667
90.983333
98.823333
100.94
85.323333
88.05
85.966667
89.336667
82.746667
78.913333
76.406667
100.346667
101.62
101.86
98.426667
44.383333
43.823333
46.353333
44.06
52.503333
50.41
51.593333
55.25
53.41
60.563333
56.776667
62.053333
63.606667
65.236667
74.93
72.773333
70.536667
71.65
68.69
67.63
66.836667
91.07
92.723333
95.04
97.146667
89.62
98.953333
100.786667
82.943333
84.723333
86.88
85.063333
88.82
79.696667
76.8
100.443333
102.053333
102.13
99.513333
43.89
43.526667
47.486667
44.38
52.983333
50.05
52.573333
52.72
55.986667
55.11
58.86
62.296667
64.153333
65.896667
74.673333
72.266667
73.66
71.31
70.293333
69.256667
66.936667
91.716667
90.59
93.686667
95.96
97.986667
89.623333
99.786667
101.616667
80.38
82.34
85.8
87.47
83.893333
77.873333
75.726667
101.53
102.823333
102.66
99.563333
43.953333
43.296667
47.256667
43.796667
45.873333
54.76
51.31
54.54
54.9
57.873333
56.33
59.22
61.166667
65.476667
63.453333
72.146667
73.49
71.35
70.733333
68.983333
67.866667
92.103333
91.363333
93.583333
95.763333
97.98
89.376667
100
101.126667
80.376667
78.36
82.413333
84.63
88.023333
76.05
75.413333
102
103.516667
102.953333
100.963333
43.656667
49.593333
44.466667
46.856667
56.29
53.353333
54.693333
56.403333
56.616667
58.89
58.223333
61.776667
66.416667
64.416667
72.483333
71.57
74.19
71.016667
70.413333
69.7
67.766667
93.006667
92.23
90.873333
94.74
96.943333
99.16
101.933333
78.693333
76.906667
81.47
85.39
88.536667
75.36
103.216667
104.113333
103.713333
101.163333
44.053333
50.05
46.033333
44.146667
48.696667
58
54.566667
56.39
57.423333
58.186667
60.846667
59.636667
66.056667
64.186667
72.04
71.236667
73.393333
71
70.433333
69.266667
68.45
93.9
93.346667
90.686667
94.963333
97.036667
98.583333
101.856667
79.713333
77.243333
75.73
83.606667
85.543333
87.663333
74.333333
103.683333
104.65
103.84
102.666667
43.986667
51.733333
46.673333
44.693333
50.356667
59.453333
54.566667
56.52
57.003333
58.626667
59.643333
62.293333
61.75
67.19
65.463333
72.25
71.37
71
73.576667
70.736667
69.996667
69.543333
68.233333
94.3
94.7
94.363333
94.12
91.866667
96.08
98.923333
103.003333
100.55
78.726667
76.973333
75.223333
85.053333
87.81
88.823333
74.01
104.52
104.83
104.42
102.733333
44.216667
53.32
51.903333
45.653333
48.323333
44.363333
50.223333
60.56
56.89
58.063333
58.513333
59.713333
59.103333
63.056667
66.826667
65.43
71.74
70.95
70.7
72.81
70.436667
69.673333
68.916667
95.69
95.78
93.936667
95.396667
95.083333
90.876667
96.503333
97.8
102.616667
101.06
80.386667
76.13
74.53
88.153333
83.696667
88.973333
73.316667
104.75
105.26
104.21
103.98
43.756667
53.49
46.01
48.453333
43.803333
45.096667
52.066667
62.05
58.433333
56.753333
59.273333
59.24
60.71
60.266667
64.566667
67.823333
66.473333
71.11
72.116667
70.516667
69.773333
69.446667
69.173333
68.87
96.383333
95.956667
96.376667
95.033333
96.123333
91.13
98.546667
103.243333
100.746667
79.75
77.246667
75.236667
89.933333
86.333333
73.933333
105.31
105.286667
104.646667
104.003333
54.6
47.16
49.84
43.803333
45.353333
51.553333
54.033333
62.13
60.25
57.54
60.553333
60.49
60.926667
65.12
67.503333
66.216667
71.146667
72.653333
70.013333
69.24
68.656667
68.476667
97.993333
96.496667
97.986667
95
95.99
96.206667
92.526667
99.896667
99.113333
103.283333
102.14
82.873333
77.046667
75.333333
92.15
89.47
86.146667
74.543333
105.693333
105.976667
104.356667
105.156667
47.253333
49.703333
44.26
44.833333
46.36
52.28
55.123333
62.826667
60.16
61.16
58.746667
56.476667
61.406667
61.376667
62.066667
64.936667
67.853333
66.33
70.483333
72.313333
74.056667
69.4
68.486667
67.833333
67.753333
98.446667
97.383333
99.253333
95.943333
94.31
96.006667
96.413333
100.603333
100.533333
103.1
102.446667
83.736667
80.413333
77.926667
93.316667
91.39
89.043333
76.76
106.333333
105.916667
104.936667
105.333333
47.836667
48.673333
50.99
44.246667
45.073333
46.456667
53.3
54.496667
64.06
60.373333
62.153333
57.293333
56.506667
62.47
62.716667
62.97
64.686667
65.603333
67.2
66.653333
70.74
73.766667
76.783333
69.22
68.066667
67.02
66.843333
99.846667
97.216667
100.863333
95.32
95.02
96.203333
101.76
101.48
103.97
103.12
87.55
81.196667
78.743333
94.403333
93.02
91.15
89.583333
78.526667
106.67
106.526667
104.733333
106.206667
47.2
48.09
50.533333
44.533333
45.69
52.756667
55.34
64.233333
60.013333
58.59
61.98
62.61
56.116667
56.923333
63.236667
63.513333
63.903333
65.353333
66.913333
66.143333
72.856667
70.09
76.833333
68.64
67.423333
66.353333
66.073333
100.99
99.37
97.146667
101.816667
94.72
95.293333
95.69
95.54
102.23
101.936667
102.02
103.683333
102.606667
88.56
85.53
82.686667
94.33
93.506667
92.446667
91.723333
82.376667
106.923333
106.256667
105.443333
106.09
47.03
48.663333
51.28
44.353333
45.52
52.966667
54.353333
64.79
60.536667
57.55
56.873333
62.41
63.063333
54.546667
53.696667
63.66
64.193333
64.46
65.556667
66.206667
65.786667
65.983333
75.67
71.766667
80.26
69.13
67.276667
66.64
65.89
65.72
101.813333
100.263333
97.753333
95.68
102.283333
92.713333
95.076667
95.473333
102.403333
102.636667
102.58
104.21
103.06
91.01
86.203333
94.73
93.546667
93.173333
93.483333
92.48
92.14
85.733333
106.983333
106.8
105.206667
106.613333
46.116667
47.22
50.033333
44.723333
51.106667
65.19
59.323333
53.99
53.62
62.173333
63.346667
51.683333
50.783333
64.08
64.456667
65.376667
65.183333
80.006667
75.23
71.386667
84.73
68.41
66.966667
65.433333
64.953333
101.563333
98.603333
96.293333
94.846667
102.07
90.903333
92.7
93.636667
101.483333
102.303333
101.87
104.316667
101.51
104.076667
91.713333
89.936667
93.496667
92.373333
92.836667
92.82
92.846667
93.05
89.433333
107.13
106.543333
105.763333
106.656667
45.706667
45.73
47.843333
44.56
49.63
64.813333
55.24
58.813333
50.85
51.156667
60.126667
62.99
49.97
48.253333
63.79
64.306667
64.933333
64.77
64.64
84.873333
80.74
73.406667
87.973333
69.443333
66.223333
68.636667
64.85
101.553333
98.423333
96.25
91.443333
87.303333
90.8
100.136667
101.446667
105.353333
102.55
105.006667
92.956667
90.63
92.006667
91.633333
90.82
92.476667
91.33
93
91.213333
107.366667
106.863333
106.373333
107.263333
45.156667
45.703333
45.466667
46.59
44.86
47.303333
64.116667
51.916667
54.58
48.63
48.673333
59.626667
63.013333
47.286667
47.573333
48.003333
63.753333
64.183333
64.033333
63.476667
86.046667
79.296667
72.183333
90.756667
66.733333
69.82
64.423333
100.073333
95.353333
92.903333
88.34
85.576667
86.016667
87.696667
97.89
99.03
105.673333
100.446667
105.393333
105.666667
93.086667
92.41
89.443333
89.446667
88.143333
90.373333
89.243333
92.513333
107.356667
106.403333
106.806667
107.443333
45.153333
45.766667
45.703333
44.673333
46.72
62.853333
48.446667
52.153333
47.963333
57.386667
61.696667
47.42
46.96
47.533333
47.24
62.576667
63.416667
62.926667
62.923333
63.363333
89.956667
82.49
74.11
91.806667
65.516667
68.66
72.553333
97.386667
92.186667
94.28
87.466667
81.886667
83.47
85.15
97.16
96.98
96.683333
102.973333
106.36
106.03
106.613333
92.92
92.693333
92.793333
87.953333
87.51
85.446667
88.91
86.036667
90.566667
107.26
106.66
107.27
107.45
45.186667
45.6
46.29
46.18
44.883333
46.483333
62.126667
61.596667
47.64
54.443333
48.57
47.123333
57.23
61.296667
47.83
47.226667
48.386667
47.07
61.553333
62.436667
61.486667
62.663333
89.13
91.506667
86.603333
78.526667
92.18
65.813333
69.156667
73.14
88.356667
90.333333
83.13
80.2
80.313333
81.796667
85.163333
94.746667
94.02
93.346667
101.586667
106.043333
107.276667
107
106.976667
92.493333
91.436667
92.366667
84.34
83.98
81.923333
84.293333
82.53
89.656667
107.01
107.586667
107.306667
45.12
46.05
46.52
44.88
47.283333
60.286667
59.9
47.123333
52.956667
48.703333
54.823333
59.07
47.963333
48.85
47.786667
49.27
49.073333
47.703333
59.256667
61.293333
61.34
64.02
88.353333
91.12
84.27
80.236667
91.08
67.526667
70.903333
76.406667
87.576667
88.69
81.15
78.59
76.44
81.813333
83.48
94.033333
90.43
103.776667
97.22
106.673333
107.593333
107.28
107
91.403333
81.583333
81.09
79.23
83.163333
81.256667
79.246667
86.87
106.953333
107.473333
107.616667
107.14
45.343333
45.86
46.986667
45.113333
47.573333
59.316667
59.943333
58.506667
46.796667
50.8
47.606667
53.63
58.053333
49.146667
49.876667
48.57
50.676667
49.02
50.063333
47.683333
57.906667
60.376667
63.943333
84.256667
87.026667
88.313333
82.7
88.086667
67.683333
69.866667
74.663333
85.31
86.613333
77.173333
76.403333
81.426667
75.28
83.053333
83
84.406667
90.39
105.793333
101.103333
97.256667
107.306667
107.883333
107.546667
87.963333
77.433333
77.196667
75.926667
78.28
76.386667
75.58
85.21
107.44
107.743333
107.706667
107.406667
45.34
46.143333
47.15
45.236667
48.353333
57.853333
59.173333
57.356667
47.45
51.106667
47.47
48.463333
55.02
50.04
49.193333
50.5
49.073333
51.646667
50.783333
50.276667
48.79
55.783333
60.36
65.893333
61.92
79.223333
80.753333
84.356667
76.923333
85.873333
84.17
70.36
85.99
88.34
75.493333
76.24
84.04
72.566667
85.963333
85.043333
85.206667
90.376667
105.963333
101.803333
94.056667
107.263333
107.883333
107.9
107.833333
75.726667
75.623333
74.726667
73.57
79.636667
73.853333
73.993333
73.556667
107.466667
107.766667
107.946667
107.663333
45.743333
46.673333
47.93
45.12
45.643333
49.07
48.546667
57.52
58.326667
55.83
48.67
49.866667
48.566667
48.666667
53.256667
51.066667
49.696667
51.47
51.496667
52.63
51.766667
50.066667
53.896667
54.856667
58.863333
65.31
61.613333
73.79
75.826667
78.143333
73.046667
80.78
79.543333
67.593333
86.386667
90.386667
72.69
74
81.04
88.563333
71.796667
88.86
86.323333
106.8
105.623333
100.33
104.4
96.43
107.55
107.9
108
107.903333
72.45
72.663333
70.893333
69.856667
75.496667
69.423333
69.473333
69.016667
107.79
108
107.97
46.986667
47.88
45.3
45.873333
49.936667
49.39
56.886667
55.693333
49.52
50.626667
49.396667
48.906667
49.236667
51.47
51.873333
50.713333
52.11
53.253333
52.643333
50.783333
51.916667
52.506667
57.99
63.053333
59.376667
68.146667
68.896667
74.206667
67.943333
78.366667
76.6
75.793333
66.34
89.056667
94.796667
70.826667
75.716667
80.99
90.873333
69.843333
91.51
89.893333
106.753333
105.973333
101.956667
104.54
107.336667
108
107.9
108
108
107.97
70.696667
71.603333
70.943333
69.073333
68.38
67.346667
69.34
66.75
67.473333
107.69
107.996667
108
46.843333
48.493333
45.146667
45.646667
46.36
50.063333
50.956667
49.776667
54.56
50.356667
49.76
50.273333
50.086667
49.05
50.006667
52.503333
52.646667
52.883333
51.606667
54.03
53.613333
50.41
51.453333
52.346667
57.846667
61.49
59.076667
66.17
65.22
65.26
70.16
73.963333
72.456667
72.593333
62.493333
91.446667
97.306667
68.75
73.503333
83.67
93.77
88.556667
69.833333
94.11
106.266667
107.003333
105.446667
102.003333
103.57
105.236667
107.67
108.113333
108.06
108
108
67.916667
69.346667
68.853333
69.613333
65.84
64.843333
64.096667
66.313333
64.043333
63.936667
107.896667
107.996667
108
47.313333
48.07
49.42
44.836667
45.366667
45.743333
46.416667
51.046667
51.94
50.833333
55.61
50.89
49.016667
50.93
50.616667
49.273333
49.98
53.07
53.546667
53.113333
51.913333
54.376667
54.473333
49.986667
50.186667
51.063333
57.07
61.24
61.456667
60.516667
65.75
70.016667
67.656667
68.326667
60.333333
95.286667
100.606667
66.8
74.506667
79.4
95.613333
88.396667
67.37
96.333333
106.02
106.706667
104.18
103.616667
104.233333
107.653333
108.113333
108.436667
107.943333
108.383333
108
66.096667
67.413333
66.86
66.876667
64.123333
64.753333
63.07
62.83
62.706667
63.18
62.196667
107.83
107.996667
108
47.14
48.273333
50.2
44.503333
45.093333
46.026667
46.726667
51.903333
52.89
51.186667
54.183333
51.623333
49.186667
51.786667
51.863333
49.266667
49.973333
53.933333
52.646667
53.926667
55.2
55.236667
49.696667
49.953333
49.796667
51.85
54.773333
57.323333
58.636667
59.223333
58.556667
58.536667
62.056667
67.483333
64.81
66.223333
100.686667
65.43
70.386667
77.316667
97.523333
94.376667
90.883333
81.426667
66.92
105.28
106.21
107.023333
104.013333
103.043333
103.583333
103.306667
108.183333
108.506667
107.973333
108.716667
108
63.996667
64.843333
64.783333
65.25
61.813333
62.906667
60.87
60.963333
61.196667
61.513333
60.9
107.93
108
47.24
48.63
47.616667
50.393333
44.37
45.28
44.606667
45.836667
46.503333
53.133333
53.7
51.973333
52.18
49.483333
52.303333
52.386667
52.37
51.043333
54.586667
53.11
54.043333
55.65
55.316667
55.386667
55.67
49.97
49.793333
49.75
50.903333
53.106667
55.776667
56.033333
56.376667
55.886667
55.956667
59.586667
62.106667
64.78
62.7
98.87
102.05
63.996667
70.94
94.37
87.393333
76.47
64.463333
105.47
106.183333
102.693333
101
101
108.07
108.566667
107.413333
108.423333
108.83
108
63.266667
63.246667
62.906667
63.416667
60.333333
61.683333
62.173333
60.03
60.51
58.58
59.393333
107.88
108
46.753333
47.983333
49.546667
47.463333
51.57
44.066667
44.763333
44.303333
46.003333
53.096667
54.533333
52.726667
49.916667
52.83
53.196667
53.563333
51.243333
53.693333
53.073333
54.74
56.02
55.73
56.086667
56.29
50.196667
50.26
50.14
50.07
51.15
51.693333
53.856667
54.033333
54.783333
54.113333
55.703333
54.636667
57.486667
59.6
62.103333
98.39
100.9
63.48
67.02
89.35
95.943333
79.95
68.64
64.01
104.056667
104.16
106.313333
99.476667
99.68
98.566667
100.15
108.07
108.243333
107.18
108.346667
108.72
62.776667
62.553333
62.63
61.616667
62.186667
58.81
60.353333
60.79
58.436667
59.156667
57.046667
57.98
107.95
108
46.283333
47.51
49.726667
46.763333
52.143333
43.866667
44.066667
44.733333
44.273333
45.416667
53.393333
55.026667
52.98
50.526667
50.356667
53.123333
54.016667
54.383333
54.23
52.903333
54.216667
53.94
54.743333
56.1
55.493333
56.416667
56.556667
56.35
50.646667
50.9
50.633333
51.303333
51.576667
53.01
53.32
53.336667
54.456667
53.606667
57.45
59.626667
99.056667
64.723333
66.233333
88.116667
96.103333
73.293333
66.013333
64.536667
101.536667
104.72
98.216667
96.843333
96.413333
98.306667
108.173333
107.663333
106.17
108.53
108.4
64.75
62.213333
61.16
61.04
60.996667
57.753333
58.96
60.34
58.016667
57.413333
55.503333
56.476667
107.726667
108
46.23
45.446667
47.786667
46.613333
50.326667
49.023333
51.43
43.866667
44.266667
44.036667
54.263333
53.273333
51.363333
51.003333
54.816667
55.42
55.366667
54.096667
53.236667
54.456667
54.49
54.366667
55.72
55.786667
55.47
56.84
56.536667
56.153333
51.236667
51.933333
51.62
51.773333
52.19
52.41
52.536667
52.903333
54.5
53.68
53.32
55.71
66.233333
64.723333
93.296667
82.943333
75.7
67.186667
65.603333
101.966667
104.463333
94.79
93.513333
96.01
93.836667
108
108.186667
107.116667
105.193333
105.62
108.066667
108.206667
69.4
64.063333
60.64
61.63
60.476667
56.666667
58.393333
59.55
56.75
55.646667
55.633333
54.97
55.813333
107.706667
45.48
45.02
47.263333
48.473333
46.033333
49.623333
51.656667
43.68
44.523333
44.06
43.813333
44.036667
53.763333
53.926667
52.413333
55.89
54.78
56.126667
55.736667
56.353333
55.396667
54.816667
55.346667
55.38
55.683333
56.083333
55.31
54.503333
56.92
56.49
56.073333
55.426667
52.2
53.22
52.523333
53.173333
52.833333
52.83
52.73
53.193333
53.3
53.813333
53.796667
53.88
72.693333
66.72
83.166667
71.33
64.946667
67.973333
99.81
101.736667
95.953333
92.416667
88.556667
93.513333
92.68
107.93
108.013333
107.336667
106.083333
103.786667
104.646667
108.063333
107.993333
69.333333
75.833333
64.056667
60.4
61.51
59.833333
56.74
56.083333
57.57
58.95
59.563333
54.546667
56.406667
55.233333
54.58
55.923333
107.29
45.433333
47.846667
46.406667
48.736667
49.786667
50.716667
52.526667
44.79
44.036667
44.023333
43.773333
43.96
53.016667
56.706667
55.943333
57.053333
56.726667
56.516667
57.143333
55.783333
55.363333
56.146667
56.406667
56.86
54.503333
53.77
56.96
55.88
55.516667
54.85
53.986667
53.81
54.28
53.91
53.893333
53.573333
54.643333
54.716667
53.886667
53.923333
54.283333
54.88
77.893333
73.416667
76.683333
67.23
65.263333
66.3
75
68.703333
101.54
93.423333
88.833333
86.423333
89.146667
88.52
107.93
106.563333
104.963333
103.79
103.766667
107.503333
107.67
75.953333
82.65
67.476667
63.846667
65.11
62.593333
56.43
55.92
58.053333
58.453333
58.873333
56.54
57.833333
55.666667
54.526667
57.17
107.213333
48.55
47.61
46.606667
48.9
49.303333
49.52
51.06
52.05
44.846667
44.023333
54.386667
56.796667
57.613333
57.723333
57.336667
57.723333
58.163333
57.323333
56.633333
57.143333
57.736667
57.163333
53.993333
54.113333
52.553333
57.356667
56.453333
55.773333
55.02
54.343333
55.6
54.856667
55.79
55.046667
55.033333
54.83
56.31
56.276667
54.886667
54.193333
55.823333
56.41
86.013333
79.326667
78.353333
67.496667
66.616667
75.73
99.29
88.676667
95.413333
86.093333
85.633333
107.63
105.223333
106.62
103.62
102.503333
102.926667
107.323333
107.063333
107.39
74.103333
82.836667
87.63
66.383333
67.726667
63.713333
57.77
58.563333
58.713333
58.483333
58.756667
58.503333
60.44
57.82
55.35
54.763333
59.23
106.453333
49.113333
48.303333
45.913333
49.756667
49.966667
50.183333
50.793333
44.373333
45.17
57.926667
58.46
58.403333
58.253333
58.933333
59.013333
58.27
57.363333
57.796667
57.93
58.303333
58.403333
57.62
53.576667
54.01
51.763333
57.95
56.676667
55.163333
54.773333
54.413333
56.706667
57.033333
56.563333
56.113333
57.23
56.056667
56.3
57.65
58.06
55.083333
56.336667
58.03
89.88
87.67
73.863333
70.79
69.02
71.876667
82.796667
100.25
88.036667
92.433333
80.816667
78.42
103.89
105.74
102.176667
102.52
101.716667
106.586667
106.293333
106.596667
78.84
87.536667
91.286667
73.246667
74.83
60.45
69.513333
59.42
60.22
59.673333
58.52
58.373333
60.976667
62.366667
59.116667
57.25
55.99
61.82
106.076667
49.103333
49.823333
47.94
46.553333
50.256667
44.37
44.716667
58.683333
59.156667
58.99
58.583333
58.683333
60.106667
59.97
59.843333
58.526667
58.603333
59.363333
59.486667
58.273333
53.55
53.983333
54.456667
52.15
57.776667
58.613333
56.53
55.696667
54.63
58.14
57.39
57.083333
58.796667
57.04
56.513333
57.453333
59.07
59.703333
56.846667
58.273333
59.743333
94.123333
91.676667
77.896667
69.483333
80.8
90.973333
98.336667
83.773333
94.396667
79.076667
76.26
74.403333
102.186667
104.35
105.63
101.113333
101.52
101.403333
106.14
105.996667
85.39
91.006667
93.913333
77.813333
75.256667
59.926667
70.853333
62.64
62.646667
60.67
59.756667
58.833333
58.36
63.663333
65.893333
62.523333
57.653333
57.183333
64.36
105.29
49.66
50.73
48.856667
45.66
51.323333
44.066667
59.77
59.953333
59.353333
59.263333
59.55
60.993333
60.776667
60.863333
60.23
59.39
59.88
60.096667
54.15
53.136667
54.303333
55.146667
58.17
59.386667
57.42
55.94
55.416667
59.536667
59.286667
58.326667
60.78
58.14
57.956667
58.72
59.8
59.986667
61.606667
58.586667
59.923333
61.676667
96.283333
96.046667
75.066667
86.203333
70.31
88.02
95.186667
99.59
84.823333
91.05
74.783333
71.523333
100.55
103.593333
104.543333
99.866667
101.613333
100.5
105.453333
104.973333
87.146667
93.103333
94.89
83.58
80.59
60.016667
77.943333
64.82
64.99
64.426667
62.82
60.57
58.486667
66.676667
64.616667
67.826667
66.973333
64.863333
60.206667
59.786667
105.123333
50.576667
49.776667
51.97
48.54
44.246667
46.73
52.213333
60.343333
60.486667
59.73
59.446667
59.82
61.72
61.293333
61.34
61.95
60.683333
59.833333
60.536667
60.733333
54.623333
54.433333
53.713333
54.586667
54.773333
55.22
55.87
58.956667
59.563333
57.703333
56.86
55.966667
61.156667
59.053333
61.94
61.843333
59.01
61.093333
62.01
63.03
60.863333
61.88
63.003333
97.743333
97.7
81.406667
91.913333
70.026667
94.23
97.543333
98.31
79.483333
93.71
71.786667
74.14
100.403333
101.963333
103.856667
99.566667
101.2
100.69
104.906667
104.533333
104.033333
90.343333
92.536667
95.926667
84.346667
58.453333
77.796667
65.82
68.483333
66.396667
64.19
62.956667
59.763333
58.603333
69.32
68.183333
72.026667
69.763333
63.673333
69.483333
61.726667
104.376667
50.693333
53.546667
50.033333
43.633333
46.096667
53.54
61.14
61.173333
60.213333
59.96
59.953333
60.756667
62.09
62.17
61.96
63.096667
63.123333
62.226667
60.463333
60.756667
61.203333
55.403333
55.29
53.996667
55.27
55.343333
56
56.466667
59.016667
60.176667
58.513333
57.45
56.946667
56.576667
60.586667
64.166667
63.826667
60.803333
61.806667
62.386667
65.416667
62.506667
64.906667
99.036667
97.116667
99.23
79.636667
89.166667
92.323333
95.73
73.61
99.13
99.826667
78.506667
91.446667
70.34
71.836667
98.466667
101.493333
102.436667
98.823333
101.24
100.156667
101.2
104.123333
103.61
103.016667
88.123333
93.18
94.783333
58.506667
58.42
82.58
71.706667
61.51
70.203333
66.44
68.686667
64.3
60.653333
72.236667
70.71
73.793333
74.936667
73.683333
66.733333
72.333333
64.73
51.266667
54.41
54.02
50.176667
44.413333
48.05
61.436667
61.72
61.003333
60.636667
60.413333
61.1
62.96
62.906667
62.356667
64.206667
63.726667
63.733333
60.63
61
61.413333
56.126667
55.716667
55.143333
56.03
55.966667
56.523333
56.616667
59.59
60.143333
58.483333
57.96
57.316667
56.63
61.593333
64.89
64.99
64.71
63.5
63.926667
67.003333
66.44
65.213333
66.49
98.903333
97.636667
99.926667
86.236667
91.826667
96.176667
98.18
73.66
99.533333
99.26
73.08
83.97
95.48
98.083333
97.83
99.55
101.096667
99.223333
100.523333
100.52
100.943333
103.29
103.15
103.033333
101.743333
87.63
90.493333
94.266667
59.023333
58.856667
59.353333
80.82
69.566667
63.883333
74.906667
68.73
68.23
62.803333
60.426667
74.693333
74.303333
77.19
79.44
77.106667
66.723333
70.773333
76.28
66.573333
52.863333
55.316667
55.463333
52.03
44.476667
48.043333
62.013333
61.823333
62.35
61.196667
61.27
60.806667
61.053333
62.033333
63.323333
62.983333
65.92
65.1
60.923333
61.163333
61.926667
56.823333
56.526667
56.66
56.523333
56.686667
56.66
59.283333
60.366667
58.68
57.74
57.076667
56.76
63.733333
66.38
66.563333
66.706667
64.636667
65.966667
70.436667
69.84
68.84
99.553333
95.93
100.383333
87.336667
90.666667
95.52
98.22
98.943333
79.23
100.583333
72.796667
81.5
94.263333
96.54
97.27
99.303333
100.773333
98.95
100.103333
100.15
100.563333
102.42
102.333333
100.943333
88.64
90.81
59.166667
59.903333
58.853333
84.016667
73.896667
61.95
76.21
70.506667
69.863333
63.643333
62.17
77.536667
77.023333
79.926667
81.763333
80.683333
70.433333
72.83
78.133333
70.156667
53.483333
55.896667
55.523333
51.973333
43.723333
46.153333
50.113333
62.38
62.863333
63.103333
62.54
62.39
61.656667
61.766667
62.52
64.49
63.563333
67.583333
65.543333
67.27
60.92
61.316667
61.83
57.2
56.533333
57
56.72
56.233333
59.463333
59.993333
60.69
58.29
57.873333
57.07
56.423333
67.23
67.396667
67.866667
66.773333
67.676667
72.25
72.51
70.656667
71.453333
97.946667
94.73
100.42
91.713333
85.663333
93.113333
96.833333
99.603333
100.703333
76.346667
100.99
100.656667
75.753333
87.76
97.623333
96.363333
96.106667
97.99
97.403333
98.683333
99.513333
100.133333
101.943333
101.516667
99.286667
87.133333
61.74
62.36
59.573333
79.63
72.92
66.656667
78.873333
73.926667
66.773333
74.646667
63.553333
80.326667
80.203333
83.606667
84.43
82.756667
76.243333
81.106667
72.53
54.7
56.136667
53.073333
43.983333
46.716667
50.153333
63
63.386667
63.513333
63.49
63.1
63.17
62.436667
62.763333
63.423333
64.65
69.703333
67.853333
69.276667
61.15
62.066667
57.13
57.476667
56.713333
56.85
56.023333
55.963333
58.976667
60.26
60.823333
58.406667
57.67
57.126667
56.556667
68.89
69.34
70.37
70.786667
76.006667
76.603333
74.136667
73.883333
97.5
95.463333
91.583333
99.143333
92.266667
89.363333
95.586667
98.873333
100.643333
101.02
80.05
101.326667
100.9
76.633333
87.276667
96.323333
96.236667
94.99
97.79
97.106667
97.996667
99.06
99.513333
101.046667
100.706667
98.31
80.576667
87.936667
65.67
62.946667
65.643333
59.45
67.703333
76.59
81.41
66.966667
76.36
78.43
83.66
82.433333
86.433333
84.933333
86.22
83.02
76.22
81.356667
54.346667
55.68
51.996667
43.42
44.606667
48.646667
45.656667
63.15
64.69
64.493333
63.926667
64.53
64.493333
63.336667
63.553333
63.963333
65.546667
72.373333
68.796667
72.336667
61.206667
61.61
62.68
57.026667
57.54
57.233333
56.42
55.386667
55.313333
59.296667
60.766667
60.35
58.033333
57.353333
56.843333
56.49
70.166667
71.153333
72.386667
78.693333
78.286667
78.296667
74.75
78.003333
77.1
93.7
91.843333
88.826667
98.593333
94.266667
88.253333
96.186667
99.37
100.683333
101.54
84.853333
76.97
101.56
100.113333
81.896667
75.473333
92.48
97.363333
95.296667
96.943333
94.286667
98.296667
95.106667
96.06
99.076667
98.503333
100.67
99.156667
96.336667
74.913333
81.273333
71.84
67.71
60.69
71.64
59.603333
64.143333
78.586667
82.166667
71.77
80.473333
81.686667
86.85
85.746667
89.433333
86.766667
88.806667
85.886667
78.36
83.946667
54.713333
56.253333
53.083333
43.496667
44.37
49.173333
46.31
63.69
65.273333
65.146667
64.836667
64.426667
65.143333
65.06
63.96
64.526667
65
67.336667
74.74
74.016667
71.626667
73.743333
61.743333
62.813333
57.16
56.466667
57.473333
57.23
55.193333
54.856667
59.97
59.18
61.283333
60.996667
57.813333
57.29
56.963333
55.863333
72.173333
74.06
75.803333
82.02
81.46
81.373333
78.426667
80.913333
79.106667
90.526667
92.45
88.353333
82.29
95.7
93.746667
90.636667
97.93