/*--------------------------------*- C++ -*----------------------------------*\
| =========                 |                                                 |
| \\      /  F ield         | OpenFOAM: The Open Source CFD Toolbox           |
|  \\    /   O peration     | Version:  2406                                  |
|   \\  /    A nd           | Website:  www.openfoam.com                      |
|    \\/     M anipulation  |                                                 |
\*---------------------------------------------------------------------------*/
FoamFile
{
    version     2.0;
    format      ascii;
    arch        "LSB;label=32;scalar=64";
    class       volScalarField;
    location    "constant";
    object      z0;
}
// * * * * * * * * * * * * * * * * * * * * * * * * * * * * * * * * * * * * * //

dimensions      [0 1 0 0 0 0 0];

internalField   nonuniform List<scalar> 
40483
(
2.45
2.43
2.44
2.40333
2.43
2.39
2.38
2.40333
2.36333
2.35667
2.37667
2.39667
2.34333
2.33333
2.34333
2.37
2.32333
2.32333
2.34333
2.36667
2.3
2.29
2.32
2.33667
2.28667
2.27667
2.26667
2.28333
2.32
2.26
2.25333
2.22333
2.26333
2.33
2.28333
2.24333
2.22667
2.20333
2.20667
2.22667
2.30667
2.26667
2.21667
2.17
2.17
2.21667
2.31333
2.28
2.23667
2.19333
2.15333
2.14667
2.14667
2.15333
2.17667
2.28667
2.26333
2.23667
2.16333
2.12
2.11667
2.11667
2.12
2.17333
2.28
2.21333
2.14
2.09333
2.09
2.09
2.09667
2.14667
2.30667
2.24
2.21
2.10667
2.09
2.06
2.06
2.06333
2.06667
2.11333
2.15333
2.29667
2.23
2.17667
2.08667
2.05
2.03333
2.03333
2.03667
2.04
2.10333
2.12667
2.26
2.32
2.19333
2.17
2.05667
2.04667
2.02667
2.01
2.01
2.01333
2.01333
2.03667
2.07667
2.11667
2.26
2.31333
2.18333
2.13667
2.04
2.01667
1.99333
1.98667
1.98667
1.98667
1.98333
2.01
2.08333
2.29
2.24333
2.33333
2.14667
2.19667
2.12333
2.01333
2.02333
1.98
1.97
1.96333
1.96333
1.96333
1.98333
1.96
2.06
2.29333
2.22
2.27
2.33333
2.13333
2.18
2.08667
1.99333
2
1.95667
1.93333
1.93333
1.93667
1.93667
1.96
1.92667
2.06
2.31667
2.21667
2.26333
2.35333
2.15333
2.09667
2.19333
2.07333
1.96667
2.02
1.97
1.92333
1.90667
1.91667
1.91333
1.93333
1.91667
2.33667
2.23333
2.28333
2.14
2.08333
2.18333
2.04
1.94333
2.01333
1.95
1.91
1.90333
1.87
1.89
1.88333
1.91667
1.89
2.32333
2.22333
2.26
2.15667
2.10667
2.04667
2.19667
2.02667
1.92
1.97667
1.92333
1.94333
1.88333
1.86667
1.86333
1.84667
1.87333
1.85333
1.89333
1.86
2.35333
2.23
2.25333
2.14667
2.09333
2.03667
2.19
1.98667
1.89667
1.94667
1.91667
1.88333
1.86
1.83667
1.81
1.84333
1.82
1.87333
1.83667
2.34333
2.21
2.27333
2.21333
2.16667
2.11667
2.06
2.00333
1.97333
1.87333
1.91
1.90333
1.87333
1.82333
1.80667
1.79
1.79333
1.82
1.79
1.84667
1.80333
2.31
2.37333
2.2
2.26333
2.19
2.17
2.10333
2.05
2
1.93333
1.84667
1.89333
1.88667
1.85333
1.82333
1.79333
1.75333
1.75667
1.78333
1.76333
1.82333
1.79667
2.32
2.35333
2.29667
2.23667
2.15667
2.2
2.15
2.07667
2.12
2.06
2.02333
1.97
1.89333
1.93333
1.82333
1.84333
1.83667
1.80667
1.76667
1.73333
1.73667
1.73667
1.73333
1.75
1.74
1.77333
2.36333
2.30333
2.24
2.12667
2.17667
2.07
2.10333
2.04333
2.02333
1.97333
1.85
1.90667
1.79667
1.81333
1.78
1.74333
1.7
1.70333
1.7
1.74667
1.70333
1.73333
1.73
1.71667
1.74
1.77333
2.39333
2.33667
2.27333
2.20667
2.12333
2.14667
2.18
2.05
2.08
2.00333
1.94667
1.84667
1.81333
1.87333
1.91667
1.78
1.71667
1.68667
1.68667
1.69333
1.67667
1.69
1.71667
1.71
1.69667
1.7
1.71667
1.75
2.40667
2.34333
2.28
2.19667
2.09333
2.14
2.15667
2.03667
2.05667
2.01
1.95333
1.81
1.78
1.86333
1.89
1.75
1.65333
1.66333
1.66333
1.64667
1.68333
1.66333
1.72
1.69333
1.67333
1.67333
1.72667
1.69
2.42667
2.4
2.37333
2.31667
2.25333
2.21667
2.15667
2.09667
2.06
2.12
2.14333
1.98667
1.93
1.80667
1.78
1.75
1.83333
1.89667
1.63
1.63667
1.63667
1.65333
1.64
1.62333
1.64333
1.65667
1.69333
1.66667
1.67333
1.64333
1.70333
1.68333
2.38667
2.32667
2.26667
2.18667
2.14333
2.07333
2.03667
2.12
1.99
1.94
1.77333
1.75
1.72333
1.83
1.87667
1.59333
1.60333
1.60667
1.62333
1.61
1.59333
1.62667
1.61333
1.66333
1.69667
1.64
1.65
1.62
1.66
2.36667
2.30333
2.24
2.15333
2.19667
2.11333
2.07333
2.04667
2.01
2.09667
1.96667
1.92
1.74667
1.77333
1.72333
1.80333
1.85
1.89
1.57
1.58333
1.59
1.57667
1.60333
1.61
1.57
1.58667
1.60333
1.64
1.67333
1.61333
1.62667
1.59333
1.64667
2.38333
2.32
2.25667
2.12667
2.16333
2.09333
2.10667
2.05
2.02
2
2.08667
1.97667
1.93
1.71333
1.75333
1.7
1.81
1.83667
1.87
1.54
1.55
1.56
1.55333
1.57667
1.58
1.57667
1.54
1.55667
1.61
1.64667
1.67667
1.58333
1.60667
1.57333
1.57667
1.61667
2.36
2.3
2.23667
2.11667
2.17
2.12667
2.07333
2.08333
2.02333
2.05667
1.96
1.91333
1.69333
1.71
1.76667
1.73
1.79333
1.84333
1.87
1.52
1.53
1.54
1.54667
1.52667
1.55333
1.56333
1.55333
1.52667
1.52
1.53333
1.58667
1.62333
1.66
1.58
1.54667
1.54667
1.6
2.37333
2.31667
2.2
2.26
2.08333
2.13667
2.10333
2.05
2.07
2
2.04
1.97
1.92333
1.88667
1.67
1.68333
1.75
1.71667
1.80667
1.83
1.84333
1.49
1.5
1.51
1.51667
1.50333
1.52667
1.53667
1.55667
1.52667
1.49333
1.49667
1.50667
1.59333
1.63333
1.56
1.52667
1.52
1.57
2.35
2.29667
2.18333
2.25333
2.07667
2.14667
2.10333
2.09333
2.03
2.04
2.01
1.95
1.90333
1.87
1.65333
1.69
1.65667
1.72333
1.75667
1.78667
1.84333
1.48
1.47333
1.49
1.5
1.50667
1.48
1.52
1.51667
1.53333
1.5
1.48333
1.48333
1.47667
1.56667
1.62667
1.53333
1.5
1.49333
1.55
2.36667
2.31333
2.19
2.29
2.22333
2.05667
2.13333
2.08
2.06333
2
2.02
1.99
1.96
1.87667
1.91
1.67
1.63333
1.70333
1.73333
1.79333
1.82333
1.44667
1.44
1.46
1.47
1.48333
1.46
1.48667
1.48333
1.50333
1.53667
1.47333
1.46333
1.46
1.57
1.6
1.51667
1.48
1.46667
1.52333
2.35
2.16
2.29333
2.22333
2.03
2.10333
2.08
2.05
2.04333
1.98
1.99
1.94
1.85333
1.88667
1.64
1.67667
1.60333
1.70667
1.74
1.77
1.82667
1.43667
1.42333
1.43333
1.45
1.46333
1.47
1.46
1.48
1.51
1.44667
1.44333
1.43667
1.54
1.49
1.45333
1.44667
1.50667
2.38
2.16333
2.25667
2.33
2.19333
2.01333
2.09333
2.05
2.03333
2.02
1.95
1.97
1.85667
1.89333
1.62
1.65667
1.58333
1.68667
1.71667
1.78
1.80667
1.40333
1.39333
1.41667
1.42333
1.43667
1.44
1.43
1.45
1.48333
1.51
1.42
1.42
1.43
1.53667
1.47
1.43667
1.42333
1.48
2.37333
2.15
2.26
2.32667
2.18667
1.98333
2.11
2.06
2.04
2.01
1.99667
1.92667
1.93667
1.83333
1.86333
1.59333
1.63
1.66333
1.55667
1.69
1.73
1.76333
1.81
1.38
1.4
1.36667
1.38
1.38333
1.41667
1.41
1.41333
1.40667
1.43667
1.45667
1.48333
1.39
1.39667
1.40333
1.51
1.44333
1.41333
1.40667
1.46
2.41333
2.13333
2.16333
2.29333
2.23667
2.35
2.20333
1.97333
2.09333
2.04667
2.01333
1.99333
2
1.91667
1.83333
1.86
1.57667
1.61
1.64667
1.54
1.66333
1.71333
1.78333
1.35
1.37333
1.35667
1.34667
1.35667
1.37667
1.38667
1.37667
1.38333
1.37333
1.41
1.45667
1.48667
1.36667
1.38667
1.37333
1.51333
1.42667
1.39667
1.38333
1.43333
2.41
2.14667
2.3
2.25333
2.38
2.33
2.19333
1.94
2.06333
2.11333
2.01667
2.00333
1.97
1.97667
1.88333
1.80333
1.82667
1.58333
1.55
1.62
1.66
1.68333
1.74
1.77667
1.34
1.34
1.35
1.32
1.32333
1.35667
1.34667
1.37
1.34333
1.40667
1.43333
1.46333
1.34
1.35667
1.49333
1.40333
1.37333
1.36667
1.41333
2.14333
2.28333
2.24
2.39333
2.33667
2.21333
2.16667
1.94
2.04333
2.11
2
1.97333
1.96
1.86333
1.8
1.83
1.56667
1.53
1.6
1.63667
1.67
1.73667
1.31333
1.32
1.32333
1.29667
1.3
1.30333
1.32667
1.33333
1.31667
1.34333
1.31667
1.38333
1.43667
1.46667
1.31667
1.33333
1.35667
1.49
1.38333
1.35333
1.34333
1.38667
2.29667
2.25333
2.38333
2.36
2.32
2.21333
2.16
1.91667
2.05667
2.01
2.08667
2.13333
1.97
1.95667
1.93
1.86333
1.77
1.81667
1.57333
1.54
1.50333
1.61
1.64333
1.67667
1.70667
1.29
1.29333
1.30667
1.26667
1.29667
1.27333
1.27667
1.30333
1.29333
1.32
1.28667
1.38667
1.41333
1.44333
1.28333
1.30667
1.33333
1.46667
1.35667
1.33
1.32667
1.36333
2.29
2.27333
2.23667
2.4
2.36333
2.32667
2.19667
2.17333
1.88333
2.04333
1.99
2.09667
2.13333
1.95333
1.92667
1.91333
1.86667
1.83333
1.76667
1.79
1.55667
1.52
1.48333
1.59
1.62333
1.65333
1.71
1.26
1.27
1.27333
1.23667
1.26333
1.26
1.28333
1.27
1.29667
1.26333
1.36333
1.41667
1.44667
1.26
1.28
1.30667
1.33667
1.46333
1.33667
1.31
1.30333
1.34
2.31
2.28333
2.24
2.38667
2.34667
2.2
2.15667
1.87333
2.02
2.05667
1.98333
1.96333
2.12
2.08
1.93
1.91667
1.89
1.83667
1.73667
1.77667
1.53
1.56333
1.49
1.59667
1.62667
1.64667
1.68667
1.25667
1.23
1.24333
1.25333
1.22
1.23
1.24333
1.23667
1.25667
1.25333
1.25333
1.27
1.23333
1.36667
1.39333
1.42667
1.22667
1.25667
1.28333
1.31333
1.44
1.31333
1.29
1.28667
1.32
2.30667
2.26667
2.22
2.4
2.35333
2.18333
2.16333
1.85333
1.99333
2.02333
2.04333
1.95333
1.94667
2.14
2.07667
1.91667
1.89333
1.87
1.82
1.73
1.79
1.74667
1.51
1.54333
1.47333
1.57667
1.61
1.62
1.66
1.7
1.23
1.20667
1.22667
1.22667
1.23
1.18667
1.21
1.22333
1.23
1.23
1.23
1.25333
1.20333
1.34667
1.4
1.21
1.21333
1.26
1.23
1.28667
1.32
1.43
1.29333
1.27
1.26333
1.29667
2.33
2.26667
2.21667
2.38333
2.19333
1.83
1.97
2.00667
2.05
1.93
1.92333
2.14667
2.09
1.89333
1.87
1.77333
1.73333
1.48333
1.51667
1.55
1.44667
1.58667
1.60667
1.64333
1.68667
1.21
1.18
1.19667
1.2
1.20667
1.16333
1.17667
1.18333
1.20333
1.20667
1.20667
1.23
1.17
1.20667
1.35
1.37667
1.18
1.18
1.24
1.22
1.26667
1.30333
1.40667
1.27
1.25
1.24667
1.27
2.33
2.29
2.23667
2.39667
2.18
1.80667
1.98
1.94
2.01333
2.03667
1.92333
1.91
2.12333
2.07333
1.87667
1.84
1.74667
1.78
1.70333
1.46
1.49
1.53
1.43667
1.57
1.61667
1.58
1.65667
1.19333
1.16333
1.17333
1.16333
1.12667
1.14667
1.17333
1.19
1.22667
1.13667
1.19
1.32333
1.38333
1.16
1.16
1.17333
1.24333
1.19667
1.27667
1.39333
1.24667
1.22667
1.26333
1.24333
2.35333
2.31333
2.28
2.23
2.38
2.19667
1.81
1.96
1.93333
2
2.03333
1.89
1.88667
2.13333
2.08
2.04667
1.84667
1.74
1.76
1.68667
1.46
1.49667
1.54
1.40667
1.6
1.56
1.64
1.17333
1.14
1.14667
1.13
1.11
1.11667
1.12667
1.15
1.16667
1.21
1.11
1.12667
1.17333
1.31333
1.37
1.13
1.13333
1.14667
1.21667
1.19
1.26667
1.22333
1.20667
1.23
1.21333
2.33667
2.29333
2.25
2.39667
2.19
1.78
1.97333
1.91
2.01
1.87667
1.87333
2.10667
2.16333
2.05333
2.03333
1.83
1.72333
1.75
1.7
1.65333
1.43
1.48
1.52333
1.39
1.61
1.57
1.53333
1.15
1.13
1.13
1.11667
1.08
1.09
1.1
1.12
1.15
1.14667
1.08
1.08667
1.14667
1.18333
1.32667
1.28333
1.35
1.11667
1.12667
1.14
1.21667
1.16
1.24333
1.19667
1.22
1.20667
1.19
2.34
2.31667
2.27667
2.25
2.39
2.22333
1.75333
1.77667
1.96667
1.88333
1.90667
1.99333
1.84667
1.84667
2.11333
2.16667
2.05
2.00333
1.8
1.72667
1.68667
1.63667
1.43
1.4
1.45333
1.49667
1.35
1.59
1.55333
1.51667
1.10667
1.10667
1.08667
1.06
1.07
1.06667
1.09
1.10667
1.12333
1.12
1.06
1.06667
1.07667
1.13
1.17667
1.31333
1.27333
1.33667
1.09
1.09667
1.11
1.19
1.14667
1.24667
1.19
1.17667
1.16333
2.36667
2.32
2.29333
2.41333
2.22333
1.72333
1.74667
1.93667
1.86
1.87333
1.84
1.83333
2.14333
2.09667
2.19333
2.02667
2.07333
1.98667
1.78667
1.70667
1.65667
1.60333
1.40667
1.37
1.45333
1.48
1.34
1.56333
1.52667
1.49
1.09333
1.09
1.07
1.03333
1.04
1.04667
1.06667
1.08333
1.09667
1.02667
1.06333
1.03333
1.04
1.1
1.15
1.29
1.07
1.08667
1.10333
1.2
1.16
1.12
1.23
1.17667
1.17
1.15667
1.14333
2.36333
2.34
2.28667
2.41
2.25333
1.72
1.7
1.73667
1.93333
1.85333
1.86333
1.82
1.80333
2.15
2.10667
2.19333
2.03333
2
2.07333
1.95667
1.75333
1.65
1.58
1.41333
1.38
1.36333
1.43667
1.31
1.54333
1.52
1.47333
1.07333
1.06333
1.04333
1.02333
1.02
1.03
1.02667
1.05
1.06333
1.07667
1.01333
1.01333
1.03667
1.01667
1.02667
1.09667
1.27
1.04
1.05
1.08
1.18667
1.14333
1.11
1.23667
1.14333
1.14
1.13
1.12
2.38333
2.35
2.30667
2.42333
2.24667
1.69667
1.67333
1.70667
1.90667
1.82667
1.88
1.82667
1.79667
2.13
2.17333
2.09333
2.20333
2.01667
2.05667
1.98
1.94333
1.73333
1.62
1.54667
1.58667
1.39
1.36667
1.33
1.44667
1.27667
1.30667
1.49333
1.06
1.04667
1.02667
1
0.993333
1.00333
1.01667
1.03
1.04667
1.05333
0.976667
0.986667
1.03333
0.98
0.986667
1.04667
1.07667
1.02667
1.02667
1.05
1.08667
1.21
1.16333
1.12
1.14667
1.13
1.12667
1.12
1.11333
2.37667
2.33667
2.29667
2.45
2.4
2.22
2.27
1.67
1.66
1.68667
1.91667
1.81
1.86333
1.81667
1.77333
2.13333
2.18333
2.09333
1.99
2.02667
2.07
1.95333
1.74333
1.69667
1.62667
1.52
1.55667
1.39667
1.33667
1.31667
1.43
1.25333
1.28333
1.49
1.04333
1.02333
1.00333
0.983333
0.983333
0.98
0.983333
0.996667
1.03
0.96
0.953333
0.983333
0.96
1.00667
0.963333
0.966667
1.03333
1.08667
0.996667
1
1.02667
1.07333
1.20667
1.15
1.11
1.12333
1.1
1.09667
1.09333
2.34333
2.31667
2.45667
2.41
2.21667
2.26
1.64333
1.65
1.9
1.78
1.87333
1.83667
1.79
2.15333
2.11
2.17667
1.97
2.01
2.05667
1.93333
1.72
1.67
1.61333
1.52333
1.55333
1.38
1.32667
1.29
1.43667
1.26333
1.22667
1.28
1.46333
1.02333
1.00333
0.983333
0.96
0.96
0.95
0.96
0.99
1.01
0.923333
0.916667
0.963333
0.936667
0.926667
0.98
0.93
1.05333
1.01
1.07667
0.98
0.986667
0.983333
0.993333
1.04333
1.08667
1.18
1.12333
1.15667
1.08667
1.08333
1.08333
2.36667
2.31667
2.48
2.44
2.39667
2.23333
2.19333
2.27
1.62
1.90667
1.75333
1.85
1.82667
1.76667
1.78
2.14
2.11333
1.98
1.94
2.02333
2.07333
1.72333
1.68333
1.63
1.58
1.5
1.51667
1.35
1.40667
1.29667
1.27
1.24667
1.22333
1.25667
1.47
1.00667
0.976667
0.96
0.936667
0.936667
0.946667
0.93
0.936667
0.97
0.903333
0.906667
0.893333
0.953333
0.943333
0.906667
0.913333
0.963333
0.903333
1.04333
1.01667
0.95
0.963333
0.96
0.976667
0.98
1.02667
1.07333
1.17667
1.10667
1.13667
1.05667
1.05667
1.05667
2.36667
2.34333
2.29333
2.49667
2.47667
2.45333
2.42
2.23
2.19
2.25
1.58
1.88333
1.75
1.85333
1.79667
1.75
1.75667
2.14667
2.1
1.96
1.91667
2.05667
2.00333
1.69667
1.67
1.6
1.49333
1.34
1.41
1.29
1.27333
1.24667
1.26333
1.2
1.44667
0.98
0.953333
0.936667
0.916667
0.916667
0.923333
0.896667
0.91
0.963333
0.876667
0.873333
0.856667
0.933333
0.886667
0.873333
0.98
0.94
0.866667
0.91
1.00333
0.93
0.943333
0.936667
0.943333
0.996667
0.95
1.04333
1.08333
1.15
1.11333
1.13333
1.04333
1.04333
1.04333
2.39
2.35333
2.28667
2.51667
2.49667
2.44667
2.41333
2.21
2.17
2.25667
1.54667
1.88667
1.72
1.83333
1.78
1.72667
1.73333
2.12
1.92667
1.97
2.07333
2.01
1.68667
1.64667
1.60333
1.55667
1.50333
1.45333
1.35333
1.31
1.38333
1.26333
1.25
1.22333
1.23333
1.2
0.923333
0.91
0.893333
0.886667
0.933333
0.893333
0.88
0.873333
0.886667
0.86
0.863333
0.853333
0.846667
0.843333
0.906667
0.86
0.966667
0.943333
0.836667
0.88
1.01667
0.903333
0.913333
0.91
0.93
0.98
0.94
1.02667
1.06667
1.14667
1.1
1.11
1.01667
1.01667
2.39667
2.34333
2.38333
2.29
2.52667
2.49
2.52
2.46333
2.43333
2.20333
2.17667
2.24667
1.86667
1.69667
1.84333
1.8
1.73667
1.71667
2.12333
1.91
1.95333
2.06333
2.10333
1.98333
2.03667
1.65667
1.62333
1.57667
1.53333
1.47
1.43
1.33333
1.30667
1.39667
1.25333
1.24667
1.23
1.21667
1.17333
0.913333
0.896667
0.88
0.873333
0.866667
0.843333
0.836667
0.86
0.846667
0.816667
0.82
0.816667
0.846667
0.976667
0.923333
0.8
0.843333
0.89
1.00333
0.88
0.893333
0.886667
0.9
0.993333
0.953333
0.913333
1.04
1.07667
1.11333
1.09
1
1.00333
2.42333
2.36667
2.31333
2.39
2.26333
2.54667
2.51667
2.54333
2.45667
2.22
2.15667
1.86
1.67333
1.83333
1.79
1.71667
1.67667
1.92667
1.87667
1.96
2.08667
2.11
1.98333
2.03333
1.64333
1.60333
1.58
1.55
1.5
1.47333
1.43667
1.32667
1.28667
1.38
1.23
1.26333
1.22667
1.20667
1.18667
0.883333
0.873333
0.853333
0.846667
0.836667
0.866667
0.823333
0.813333
0.84
0.826667
0.806667
0.79
0.793333
0.82
0.79
0.853333
0.963333
0.933333
0.773333
0.816667
0.86
0.853333
0.863333
0.883333
0.86
0.893333
0.97
0.93
0.906667
1.02333
1.06667
1.11
1.08333
0.973333
0.976667
2.43667
2.37667
2.30667
2.41
2.24667
2.57
2.55667
2.50667
2.54667
2.47333
2.21667
2.16
1.84
1.66333
1.65
1.81333
1.76333
1.73333
1.68333
1.65333
1.92
1.86667
1.94
2.08333
2.13333
1.96
2.00667
2.05667
1.61333
1.55333
1.53333
1.48333
1.44667
1.40667
1.34667
1.29667
1.21667
1.24667
1.20667
1.18
0.87
0.826667
0.82
0.813333
0.843333
0.786667
0.776667
0.806667
0.776667
0.76
0.77
0.796667
0.766667
0.85
0.92
0.783333
0.74
0.823333
0.866667
0.826667
0.846667
0.856667
0.843333
0.87
0.986667
0.933333
0.88
1.04
1.14667
1.07667
1.04667
0.956667
0.963333
2.43
2.46333
2.36333
2.40667
2.28333
2.31333
2.25667
2.58
2.52667
2.57333
2.19
1.82
1.63333
1.63
1.76333
1.71
1.67667
1.66
1.62
1.90333
1.88333
1.83667
1.94
2.11
2.13667
1.96
2.00333
2.05
1.60667
1.54667
1.5
1.45333
1.42
1.4
1.34
1.28
1.19
1.22333
1.25333
1.18333
0.8
0.793333
0.82
0.786667
0.773333
0.763333
0.753333
0.756667
0.74
0.74
0.796667
0.77
0.743333
0.936667
0.893333
0.756667
0.73
0.716667
0.793333
0.84
0.8
0.816667
0.836667
0.823333
0.843333
0.97
0.9
0.863333
1.02667
1.15
1.04
1.07667
1.02667
0.93
2.45333
2.47333
2.38333
2.33
2.43
2.29
2.24
2.60333
2.50333
2.56667
2.6
2.58667
2.19333
1.81333
1.61333
1.73667
1.78667
1.71333
1.68667
1.65
1.63333
1.59667
1.89667
1.87667
1.83
1.91333
2.1
2.16667
1.93333
1.98
2.02333
2.06667
1.58333
1.52333
1.56
1.48
1.43333
1.41
1.36667
1.31
1.28333
1.17
1.20667
1.23667
0.77
0.763333
0.766667
0.743333
0.736667
0.726667
0.73
0.72
0.72
0.73
0.77
0.75
0.733333
0.92
0.88
0.76
0.723333
0.703333
0.686667
0.803333
0.85
0.796667
0.77
0.81
0.816667
0.816667
0.82
0.933333
0.993333
0.9
0.866667
0.83
1.13
1.01333
1.05
1.1
0.983333
0.91
2.45667
2.37667
2.42
2.32
2.28
2.25667
2.21667
2.49333
2.59
2.58333
2.62
2.61333
1.58667
1.73
1.78
1.68667
1.67
1.63
1.64667
1.60333
1.57
1.85333
1.8
1.90667
2.11333
2.18
1.92333
1.98667
2.01333
2.05333
1.49667
1.53667
1.44667
1.43
1.38333
1.36
1.30667
1.25667
1.18
1.14333
1.21333
1.23667
0.736667
0.733333
0.743333
0.72
0.72
0.713333
0.703333
0.71
0.7
0.693333
0.7
0.746667
0.74
0.71
0.89
0.73
0.696667
0.683333
0.666667
0.78
0.83
0.77
0.743333
0.793333
0.796667
0.8
0.79
0.933333
0.97
0.866667
0.836667
0.816667
1.02333
0.976667
1.04667
1.09
0.96
0.883333
2.35667
2.40333
2.43
2.33333
2.3
2.28667
2.24333
2.22
2.51
2.57333
1.56667
1.75
1.7
1.68
1.66667
1.6
1.62667
1.58333
1.55333
1.85333
1.79
1.88
2.15333
2.09
2.21
1.89667
1.94333
1.97333
2.02667
2.06333
1.48
1.54
1.42667
1.40333
1.38
1.33
1.27667
1.25333
1.16333
1.12667
1.19667
1.21
0.706667
0.7
0.73
0.686667
0.696667
0.686667
0.68
0.683333
0.676667
0.69
0.71
0.873333
0.7
0.726667
0.67
0.66
0.643333
0.796667
0.746667
0.843333
0.773333
0.746667
0.713333
0.78
0.786667
0.766667
0.903333
0.87
0.836667
0.826667
0.793333
1.00667
0.956667
1.02333
1.06333
1.10333
0.923333
0.866667
2.36
2.4
2.46
2.32333
2.29
2.27667
2.25667
2.55
2.49333
1.74333
1.69333
1.65
1.64
1.58667
1.6
1.55
1.53
1.54
1.83333
1.80667
1.76333
1.88
2.16333
2.09667
2.23333
1.88667
1.93
1.99
2.01667
2.04
1.48333
1.44667
1.52
1.4
1.42333
1.35667
1.32
1.27333
1.22333
1.13667
1.17333
1.2
0.676667
0.673333
0.703333
0.66
0.68
0.67
0.656667
0.66
0.656667
0.653333
0.66
0.69
0.67
0.7
0.65
0.64
0.623333
0.776667
0.726667
0.826667
0.756667
0.723333
0.693333
0.753333
0.763333
0.77
0.74
0.9
0.846667
0.813333
0.8
0.786667
0.976667
0.926667
1.02333
1.05
1.09
0.91
0.84
2.37667
2.34
2.42
2.45333
2.3
2.55667
2.52667
1.71667
1.66667
1.64333
1.63
1.62667
1.55
1.58333
1.53
1.51667
1.84
1.79667
1.75667
1.86
2.19667
2.13
2.07333
2.24333
1.9
1.86333
1.94333
1.97333
2.04333
1.45
1.49333
1.38
1.39
1.36
1.33333
1.29333
1.25333
1.21667
1.12
1.15333
1.17333
0.653333
0.643333
0.626667
0.64
0.646667
0.633333
0.636667
0.64
0.633333
0.64
0.646667
0.66
0.646667
0.673333
0.7
0.626667
0.616667
0.596667
0.793333
0.74
0.73
0.7
0.663333
0.746667
0.736667
0.746667
0.716667
0.863333
0.843333
0.82
0.786667
0.783333
0.76
0.963333
0.903333
1.00333
1.06333
1.09667
0.883333
0.823333
2.37333
2.34333
2.41
2.47333
2.28333
2.53
1.71333
1.66333
1.61667
1.59667
1.59667
1.53333
1.55333
1.49333
1.48333
1.81667
1.77333
1.73333
2.19667
2.22667
2.13667
2.07667
1.89667
1.84333
1.92333
1.98667
2.02
1.44
1.47
1.37333
1.37333
1.34
1.32333
1.28333
1.26
1.23333
1.18667
1.12667
1.15333
1.16667
0.626667
0.62
0.613333
0.606667
0.633333
0.616667
0.596667
0.613333
0.61
0.606667
0.613333
0.616667
0.616667
0.653333
0.673333
0.603333
0.593333
0.573333
0.78
0.716667
0.713333
0.676667
0.653333
0.723333
0.71
0.716667
0.696667
0.703333
0.86
0.82
0.806667
0.763333
0.756667
0.933333
0.976667
0.906667
0.876667
1.00667
1.05333
1.07667
0.796667
2.36
2.38667
2.32667
2.42667
2.50667
2.45667
2.29667
1.68667
1.63667
1.60333
1.59
1.58
1.50333
1.53667
1.47
1.47667
1.46
1.81667
1.76
1.73333
2.18
2.22
2.24
2.16
2.11667
2.09667
2.05667
1.87333
1.84667
1.92333
1.97
2.03
1.41333
1.34667
1.38333
1.34
1.3
1.25
1.21667
1.19
1.10333
1.13
1.14
0.606667
0.593333
0.58
0.57
0.606667
0.59
0.58
0.59
0.593333
0.586667
0.603333
0.596667
0.603333
0.623333
0.656667
0.576667
0.57
0.55
0.753333
0.726667
0.673333
0.686667
0.67
0.626667
0.703333
0.696667
0.673333
0.673333
0.84
0.81
0.786667
0.766667
0.736667
0.733333
0.933333
0.956667
0.883333
0.853333
1.03
0.983333
1.07667
0.78
2.37333
2.32333
2.41
2.52333
2.47333
2.28333
1.68333
1.63667
1.61
1.57333
1.56667
1.55
1.48333
1.49333
1.50667
1.43333
1.44
1.42333
1.79667
1.77
1.71
2.19667
2.22
2.26
2.15
2.13
2.1
2.06667
1.87667
1.82333
1.9
1.94333
1.98667
2.01333
1.33
1.36
1.32
1.28667
1.26
1.22667
1.17
1.10667
1.12667
0.58
0.606667
0.573333
0.563333
0.556667
0.55
0.56
0.576667
0.55
0.57
0.566667
0.56
0.573333
0.57
0.57
0.61
0.623333
0.55
0.546667
0.526667
0.54
0.753333
0.703333
0.656667
0.68
0.643333
0.623333
0.666667
0.706667
0.656667
0.663333
0.65
0.813333
0.79
0.803333
0.74
0.716667
0.916667
0.96
0.893333
0.856667
0.843333
1.02667
0.983333
1.05667
2.38
2.3
2.33333
2.41667
2.50667
2.45
1.66
1.61333
1.58667
1.55667
1.54333
1.52667
1.45667
1.46333
1.49
1.40667
1.43
1.40333
1.8
1.75667
1.71
2.19
2.24333
2.26333
2.16333
2.12
2.09
2.05667
1.85333
1.82667
1.90333
1.93
1.97333
2.03
1.3
1.37
1.33
1.29333
1.24667
1.22333
1.18
1.14
1.08333
1.09333
0.56
0.576667
0.546667
0.533333
0.526667
0.516667
0.53
0.556667
0.526667
0.546667
0.553333
0.55
0.54
0.56
0.546667
0.58
0.6
0.523333
0.53
0.51
0.516667
0.736667
0.713333
0.676667
0.623333
0.66
0.64
0.593333
0.646667
0.646667
0.686667
0.636667
0.636667
0.626667
0.796667
0.783333
0.733333
0.716667
0.693333
0.92
0.94
0.88
0.84
0.813333
1.03667
1.00333
0.96
1.06
2.36
2.28667
2.31667
2.39667
2.51667
2.45333
1.66
1.59
1.61333
1.56333
1.53333
1.52667
1.52667
1.49667
1.45
1.46333
1.37333
1.40333
1.77667
1.73333
1.68333
2.21667
2.24667
2.15333
2.13
2.09667
2.07667
1.86
1.80333
1.88667
1.94333
1.98667
2.01667
1.28333
1.35333
1.31333
1.28
1.25667
1.20667
1.16333
1.12
1.07667
0.53
0.566667
0.523333
0.513333
0.52
0.506667
0.496667
0.5
0.52
0.5
0.52
0.52
0.51
0.533333
0.516667
0.573333
0.596667
0.496667
0.503333
0.486667
0.496667
0.69
0.666667
0.616667
0.62
0.593333
0.613333
0.656667
0.613333
0.62
0.626667
0.596667
0.773333
0.756667
0.7
0.696667
0.683333
0.896667
0.94
0.853333
0.813333
0.8
1.02333
1.00333
0.963333
1.03667
2.37
2.29333
2.32667
2.40333
2.55
2.48667
2.42667
1.63667
1.57
1.59
1.54333
1.51667
1.5
1.50333
1.47667
1.42333
1.44667
1.35667
1.40333
1.37
1.77
1.72333
1.69333
2.21
2.27333
2.15667
2.11667
2.07333
1.83667
1.80667
1.78
1.89667
1.92667
1.98
2.02333
1.32667
1.29
1.25667
1.24333
1.21667
1.13333
1.17667
1.09
1.04333
0.506667
0.536667
0.496667
0.49
0.503333
0.493333
0.483333
0.466667
0.473333
0.5
0.476667
0.49
0.503333
0.5
0.49
0.513333
0.526667
0.493333
0.546667
0.566667
0.476667
0.476667
0.686667
0.64
0.583333
0.57
0.59
0.643333
0.586667
0.6
0.603333
0.583333
0.76
0.753333
0.686667
0.683333
0.663333
0.893333
0.916667
0.843333
0.793333
0.776667
0.986667
0.943333
1.02667
2.35333
2.31333
2.39
2.56
2.48
2.42333
1.62667
1.54667
1.57
1.59667
1.52
1.49
1.48
1.48333
1.45333
1.42333
1.32
1.37667
1.35333
1.74
1.68333
2.17667
2.23333
2.28333
2.13
2.04667
2.09667
1.85
1.78333
1.75667
1.88333
1.93
1.96333
2
1.31
1.27667
1.24333
1.20333
1.12333
1.16333
1.07
1.02667
0.473333
0.51
0.533333
0.47
0.47
0.473333
0.476667
0.463333
0.443333
0.446667
0.47
0.456667
0.463333
0.47
0.466667
0.46
0.486667
0.5
0.466667
0.543333
0.56
0.453333
0.446667
0.653333
0.63
0.576667
0.576667
0.546667
0.596667
0.556667
0.62
0.556667
0.563333
0.74
0.75
0.663333
0.65
0.69
0.866667
0.916667
0.816667
0.773333
0.793333
0.756667
0.996667
0.95
2.36667
2.33
2.4
2.59
2.53667
2.44333
2.50333
1.63333
1.52333
1.55
1.58667
1.50333
1.47
1.46
1.46
1.43333
1.40667
1.3
1.37
1.32667
1.73333
1.70667
1.65667
2.17333
2.22333
2.26667
2.12333
2.05333
2.08667
1.83333
1.75667
1.78
1.9
1.94333
1.96667
1.99
1.28333
1.25333
1.21667
1.09667
1.14
1.17667
1.04
1.07333
0.993333
0.446667
0.483333
0.51
0.436667
0.45
0.45
0.453333
0.433333
0.413333
0.42
0.45
0.453333
0.426667
0.436667
0.453333
0.45
0.446667
0.433333
0.48
0.463333
0.493333
0.446667
0.516667
0.53
0.433333
0.426667
0.646667
0.6
0.546667
0.56
0.53
0.573333
0.533333
0.543333
0.62
0.526667
0.543333
0.716667
0.72
0.643333
0.633333
0.666667
0.863333
0.89
0.806667
0.75
0.77
0.736667
0.98
0.926667
2.35667
2.31333
2.38
2.59333
2.55333
2.43667
2.49
1.60667
1.50333
1.52667
1.54667
1.56333
1.48
1.44333
1.43667
1.44
1.41
1.38333
1.27667
1.30333
1.34
1.32
1.70667
1.65333
2.19667
2.14667
2.25333
2.28
2.03333
2.10333
1.8
1.84333
1.73333
1.75333
1.90333
1.93
1.94667
2
1.27
1.24
1.20333
1.1
1.12667
1.16
1.02333
1.05333
0.98
0.453333
0.416667
0.486667
0.51
0.41
0.426667
0.423333
0.43
0.406667
0.386667
0.39
0.433333
0.41
0.423333
0.42
0.413333
0.403333
0.453333
0.44
0.466667
0.423333
0.51
0.523333
0.403333
0.386667
0.613333
0.59
0.54
0.536667
0.59
0.543333
0.5
0.51
0.523333
0.5
0.526667
0.696667
0.606667
0.643333
0.653333
0.836667
0.893333
0.813333
0.776667
0.746667
0.706667
0.93
2.33667
2.37667
2.61333
2.58
2.53667
2.46
2.40333
2.50667
1.60333
1.48333
1.50333
1.51667
1.55
1.46667
1.42333
1.41333
1.41667
1.39
1.37333
1.26333
1.27
1.27667
1.33333
1.29
1.68
1.62667
2.18667
2.15333
2.24333
2.03667
2.08667
2.13667
1.79333
1.81667
1.86667
1.73333
1.74667
1.89333
1.93667
1.98667
1.25
1.21667
1.07667
1.13333
1.17
1.03333
0.996667
1.04
0.953333
0.43
0.393333
0.473333
0.49
0.376667
0.4
0.393333
0.4
0.376667
0.36
0.356667
0.41
0.38
0.41
0.396667
0.4
0.39
0.37
0.436667
0.446667
0.42
0.46
0.4
0.48
0.496667
0.376667
0.36
0.606667
0.56
0.51
0.583333
0.516667
0.483333
0.49
0.496667
0.47
0.503333
0.66
0.593333
0.63
0.826667
0.873333
0.79
0.76
0.726667
0.69
0.903333
2.33667
2.61667
2.59667
2.54667
2.45
2.4
2.49667
1.57
1.48
1.51667
1.44333
1.39667
1.42333
1.39
1.39333
1.35333
1.24
1.25
1.27
1.30667
1.28333
1.68
1.62333
2.20333
2.26667
2.00667
2.05667
2.1
2.15
1.76667
1.81333
1.86667
1.70667
1.72
1.91
1.95667
1.2
1.08667
1.04333
1.11667
1.15
1.02
0.98
0.953333
0.4
0.446667
0.363333
0.486667
0.353333
0.363333
0.37
0.386667
0.366667
0.373333
0.356667
0.33
0.323333
0.353333
0.376667
0.366667
0.366667
0.353333
0.343333
0.413333
0.423333
0.396667
0.433333
0.38
0.473333
0.49
0.34
0.323333
0.573333
0.55
0.5
0.553333
0.49
0.523333
0.456667
0.46
0.473333
0.45
0.46
0.63
0.606667
0.563333
0.796667
0.843333
0.88
0.766667
0.733333
0.703333
0.663333
0.903333
2.31
2.37333
2.63667
2.59667
2.57333
2.52
2.42333
2.47
1.56333
1.45333
1.49333
1.43333
1.37333
1.4
1.37
1.37
1.35
1.23333
1.22
1.24
1.30667
1.25667
1.65
1.59333
2.18333
2.25
2
2.05
2.07667
2.13
1.77
1.79333
1.83333
1.85333
1.89333
1.7
1.70333
1.94333
1.20667
1.07333
1.01333
1.12333
1.15667
0.993333
0.93
0.38
0.44
0.34
0.463333
0.32
0.33
0.346667
0.353333
0.336667
0.35
0.33
0.31
0.29
0.323333
0.353333
0.336667
0.343333
0.33
0.306667
0.406667
0.393333
0.416667
0.426667
0.35
0.446667
0.46
0.313333
0.326667
0.296667
0.566667
0.52
0.47
0.463333
0.493333
0.443333
0.443333
0.456667
0.42
0.433333
0.636667
0.596667
0.59
0.55
0.78
0.833333
0.856667
0.743333
0.713333
0.683333
0.66
0.876667
2.33
2.38
2.65
2.62333
2.58
2.52333
2.41667
2.45667
1.53333
1.44
1.50333
1.45667
1.40667
1.34333
1.37667
1.34333
1.33
1.22
1.19
1.23333
1.28
1.25333
1.65
1.59333
2.19
2.27
2.21667
1.96667
2.02333
2.08667
2.14
1.76333
1.78667
1.82667
1.86333
1.88667
1.67333
1.67333
1.71333
1.90667
1.18333
1.04333
1.1
0.976667
1.01333
1.13333
0.97
0.933333
0.35
0.386667
0.413333
0.31
0.3
0.31
0.32
0.33
0.313333
0.326667
0.316667
0.28
0.26
0.283333
0.296667
0.316667
0.31
0.306667
0.293333
0.28
0.38
0.37
0.39
0.4
0.343333
0.44
0.45
0.276667
0.286667
0.263333
0.533333
0.51
0.46
0.46
0.496667
0.416667
0.416667
0.433333
0.403333
0.403333
0.41
0.62
0.57
0.563333
0.523333
0.75
0.783333
0.806667
0.853333
0.716667
0.686667
0.64
0.873333
2.30667
2.36333
2.4
2.67667
2.64667
2.63
2.61
2.55667
2.48667
2.43
1.53667
1.39667
1.48
1.44333
1.38333
1.32
1.35333
1.18667
1.17
1.21333
1.27333
1.22333
1.62333
1.56667
2.16667
2.24333
2.21333
1.95333
2.01
2.07
2.12
1.74333
1.8
1.84667
1.64667
1.69333
1.89333
1.03667
1.10333
0.946667
0.98
1.14
0.903333
0.333333
0.366667
0.413333
0.293333
0.263333
0.28
0.306667
0.296667
0.286667
0.283333
0.256667
0.233333
0.256667
0.273333
0.293333
0.28
0.283333
0.24
0.363333
0.37
0.38
0.39
0.323333
0.41
0.416667
0.253333
0.263333
0.27
0.233333
0.526667
0.48
0.426667
0.43
0.476667
0.403333
0.396667
0.373333
0.37
0.39
0.596667
0.543333
0.57
0.543333
0.52
0.73
0.756667
0.803333
0.826667
0.696667
0.663333
0.64
0.84
2.32
2.39333
2.41333
2.69667
2.67333
2.66333
2.62
2.58333
2.48
1.51
1.38333
1.48333
1.45667
1.41333
1.35333
1.32667
1.29
1.17667
1.19333
1.20667
1.24
1.21667
1.62
1.58333
2.18333
2.25333
1.91667
1.97333
2.03333
2.09667
2.12667
1.74333
1.8
1.83333
1.64
1.66333
1.71333
1.85333
1.00667
1.07
0.95
0.91
0.98
1.11333
0.306667
0.343333
0.373333
0.393333
0.26
0.24
0.253333
0.283333
0.276667
0.266667
0.27
0.223333
0.2
0.236667
0.253333
0.26
0.25
0.246667
0.21
0.336667
0.34
0.353333
0.356667
0.29
0.396667
0.403333
0.223333
0.233333
0.23
0.203333
0.493333
0.47
0.413333
0.426667
0.4
0.496667
0.45
0.376667
0.37
0.36
0.356667
0.356667
0.37
0.593333
0.513333
0.543333
0.703333
0.733333
0.756667
0.78
0.816667
0.67
0.616667
0.83
2.29333
2.36
2.39667
2.69667
2.68
2.65667
2.56
2.43667
2.50667
1.5
1.35333
1.46
1.40667
1.32
1.30333
1.27
1.14667
1.18667
1.24
1.18
1.57
2.16333
2.22333
1.90667
1.94333
2.01
2.09333
1.77333
1.6
1.64
1.69667
1.83333
0.993333
1.07333
0.92
0.886667
0.953333
1.11667
0.3
0.323333
0.36
0.243333
0.203333
0.226667
0.266667
0.246667
0.246667
0.24
0.216667
0.193333
0.173333
0.216667
0.23
0.236667
0.243333
0.216667
0.23
0.176667
0.323333
0.333333
0.34
0.34
0.273333
0.36
0.366667
0.21
0.203333
0.213333
0.216667
0.213333
0.176667
0.486667
0.436667
0.376667
0.396667
0.37
0.49
0.44
0.346667
0.33
0.323333
0.333333
0.57
0.513333
0.546667
0.686667
0.703333
0.733333
0.776667
0.79
0.65
0.62
0.853333
0.8
2.31667
2.36
2.72
2.72333
2.56667
2.44
2.48
1.46333
1.52667
1.35667
1.31667
1.45
1.38