/*--------------------------------*- C++ -*----------------------------------*\
  =========                |
  \      /  F ield         | OpenFOAM: The Open Source CFD Toolbox
   \    /   O peration     | Website:  https://openfoam.org
    \  /    A nd           | Version:  7
     \/     M anipulation  |
\*---------------------------------------------------------------------------*/

FoamFile
{
    version     2.0;
    format      ascii;
    class       dictionary;
    location    "system";
    object      controlDict;
}
// * * * * * * * * * * * * * * * * * * * * * * * * * * * * * * * * * * * * * //

application     porousScalarTransportFoam;

startFrom       startTime;

startTime       0.0;

stopAt          endTime;

endTime         6.343078e+7;

deltaT          1;

writeControl    adjustableRunTime;

writeInterval   3.15576e+5;

purgeWrite      0;

writeFormat     ascii;

writePrecision  10;

writeCompression off;

timeFormat      general;

timePrecision   8;

adjustTimeStep yes;

runTimeModifiable true;

nIterPicard 3;

truncationError_C 0.01;

maxDeltaT       3.15576e+5;

CSVoutput       true;

eventTimeTracking false;

// ************************************************************************* //
