/*--------------------------------*- C++ -*----------------------------------*\
  =========                |
  \      /  F ield         | OpenFOAM: The Open Source CFD Toolbox
   \    /   O peration     | Website:  https://openfoam.org
    \  /    A nd           | Version:  7
     \/     M anipulation  |
\*---------------------------------------------------------------------------*/

FoamFile
{
    version     2.0;
    format      ascii;
    class       dictionary;
    object      blockMeshDict;
}
// * * * * * * * * * * * * * * * * * * * * * * * * * * * * * * * * * * * * * //

//- column properties
xmin 0;
xmax 1;
ymin 0;
ymax 1;
zmin 132.873;
zmax 157.918;
nx 1;
ny 1;
nz 5009;

vertices        
(
    ($xmin $ymin $zmin)
    ($xmax $ymin $zmin)
    ($xmax $ymax $zmin)
    ($xmin $ymax $zmin)
    ($xmin $ymin $zmax)
    ($xmax $ymin $zmax)
    ($xmax $ymax $zmax)
    ($xmin $ymax $zmax)
);

blocks          
(
    hex (0 1 2 3 4 5 6 7) ($nx $ny $nz) simpleGrading (1 1 1)
);

edges           
(
);

patches         
(
    patch top 
    (
        (4 5 6 7)
    )

    patch bottom 
    (
        (0 1 2 3)
    )

    empty sides 
    (
        (3 7 6 2)
	(0 4 7 3)
        (1 5 4 0)
	(2 6 5 1)
    )
);

mergePatchPairs 
(
);

// ************************************************************************* //
